<?xml version="1.0" encoding="UTF-8"?>

<!-- generated on 2025-12-26 23:17:27.952492 by randomTrips.py v1_18_0+0000-03ecfdea036
<configuration>
    <net-file value="app/sumo/network/hebbal.net.xml"/>
    <output-trip-file value="app/sumo/network/trips_hebbal.xml"/>
    <vehicle-class value="passenger"/>
    <fringe-factor value="10"/>
    <remove-loops value="True"/>
    <validate value="True"/>
    <period value="0.9"/>
</configuration>
-->

<!-- generated on 2025-12-26 23:17:27 by Eclipse SUMO duarouter Version 1.18.0
<configuration xmlns:xsi="http://www.w3.org/2001/XMLSchema-instance" xsi:noNamespaceSchemaLocation="http://sumo.dlr.de/xsd/duarouterConfiguration.xsd">

    <input>
        <net-file value="app/sumo/network/hebbal.net.xml"/>
        <route-files value="app/sumo/network/trips_hebbal.xml"/>
    </input>

    <output>
        <output-file value="routes.rou.xml"/>
        <alternatives-output value="NUL"/>
    </output>

    <processing>
        <remove-loops value="true"/>
    </processing>

    <time>
        <begin value="0"/>
        <end value="3600.0"/>
    </time>

    <report>
        <no-warnings value="true"/>
        <ignore-errors value="true"/>
        <no-step-log value="true"/>
    </report>

</configuration>
-->

<routes xmlns:xsi="http://www.w3.org/2001/XMLSchema-instance" xsi:noNamespaceSchemaLocation="http://sumo.dlr.de/xsd/routes_file.xsd">
    <vType id="passenger" vClass="passenger"/>
    <vehicle id="0" type="passenger" depart="0.00">
        <route edges="114817850 326557690#4 326557690#5 326557690#6 326557690#7 326557690#10 326557690#11 326557690#12 326557690#13 326557690#14 326557690#15 -1079689329"/>
    </vehicle>
    <vehicle id="1" type="passenger" depart="0.90">
        <route edges="-238185296 114817854#1 114817854#2 114817854#3 -326557690#16 -326557690#15 -326557690#14 -326557690#13 -326557690#12 -326557690#11 325929761#0 -1182399616"/>
    </vehicle>
    <vehicle id="2" type="passenger" depart="1.80">
        <route edges="1227941494 326557690#15 -238184282#1 -238184282#0 114817857#0 114817857#1 -238184275#3"/>
    </vehicle>
    <vehicle id="3" type="passenger" depart="2.70">
        <route edges="326557690#0 326557690#2 326557690#3 326557690#4 326557690#5 326557690#6 326557690#7 326557690#10 326557690#11 326557690#12 326557690#13 -1102785242"/>
    </vehicle>
    <vehicle id="4" type="passenger" depart="3.60">
        <route edges="-667001220#1 -667001220#0 326557690#10 326557690#11 326557690#12 326557690#13 326557690#14 326557690#15 -238184282#1 -238184282#0 114817857#0 114817857#1 -238184275#3 -238184275#2"/>
    </vehicle>
    <vehicle id="5" type="passenger" depart="4.50">
        <route edges="-238184277 -1429229202#1 -735056335#0"/>
    </vehicle>
    <vehicle id="6" type="passenger" depart="5.40">
        <route edges="-1102785234 238184275#3 -114817857#1 -114817857#0 238184281#4 -114817854#1"/>
    </vehicle>
    <vehicle id="7" type="passenger" depart="6.30">
        <route edges="114817854#0 114817854#1 114817854#2 114817854#3 -326557690#16 -326557690#15 -326557690#14 -326557690#13 -326557690#12 -326557690#11 -326557690#10 -326557690#7 -326557690#6 -326557690#5 -326557690#4 -326557690#3 -326557690#2 1102785245"/>
    </vehicle>
    <vehicle id="8" type="passenger" depart="7.20">
        <route edges="-238184278 326557690#2 326557690#3 326557690#4 326557690#5 326557690#6 326557690#7 326557690#10 326557690#11 326557690#12 326557690#13 326557690#14 326557690#15 -238184282#1 -995099260 114817854#3"/>
    </vehicle>
    <vehicle id="9" type="passenger" depart="8.10">
        <route edges="1433092893#1 326557690#10 326557690#11 326557690#12 326557690#13 326557690#14 326557690#15 -1079689329"/>
    </vehicle>
    <vehicle id="10" type="passenger" depart="9.00">
        <route edges="1433092893#0 1433092893#1 -326557690#7 -326557690#6 -326557690#5 -326557690#4 -326557690#3 -660094161 238184277"/>
    </vehicle>
    <vehicle id="11" type="passenger" depart="9.90">
        <route edges="-325929767 -326557690#12 -326557690#11 -326557690#10 -326557690#7 -326557690#6 -326557690#5 -326557690#4 -114817850"/>
    </vehicle>
    <vehicle id="12" type="passenger" depart="10.80">
        <route edges="667751249#0 667751249#1 326557690#2 326557690#3 326557690#4 326557690#5 326557690#6 326557690#7 326557690#10 326557690#11 326557690#12 326557690#13 -238184279#1 -238184279#0 -238184281#0"/>
    </vehicle>
    <vehicle id="13" type="passenger" depart="11.70">
        <route edges="-114817854#3 995099260 238184282#1 -326557690#15 -326557690#14 -1102785242"/>
    </vehicle>
    <vehicle id="14" type="passenger" depart="12.60">
        <route edges="325929768#0 -1102785234 238184275#3 114817857#2"/>
    </vehicle>
    <vehicle id="15" type="passenger" depart="13.50">
        <route edges="1433092893#0 1433092893#1 326557690#10 326557690#11 326557690#12 326557690#13 326557690#14 326557690#15 326557690#16 -114817854#3 -114817854#2 -114817854#1 238185296"/>
    </vehicle>
    <vehicle id="16" type="passenger" depart="14.40">
        <route edges="-995100109 660094161 326557690#3 -735056335#1 1429229202#1 995100109"/>
    </vehicle>
    <vehicle id="17" type="passenger" depart="15.30">
        <route edges="-326557690#17 -326557690#16 -326557690#15 -326557690#14 -326557690#13 -326557690#12 -326557690#11 -326557690#10 -326557690#7 -326557690#6 -326557690#5 1102785246"/>
    </vehicle>
    <vehicle id="18" type="passenger" depart="16.20">
        <route edges="238184281#2 114817857#0 114817857#1 114817857#2"/>
    </vehicle>
    <vehicle id="19" type="passenger" depart="17.10">
        <route edges="325929768#0 -1102785234 238184275#3 -114817857#1 -114817857#0 238184282#0 238184282#1 -326557690#15 -326557690#14 -326557690#13 -326557690#12 -326557690#11 -326557690#10 -326557690#7 1102785247"/>
    </vehicle>
    <vehicle id="20" type="passenger" depart="18.00">
        <route edges="1182399616 -325929761#0 326557690#11 326557690#12 326557690#13 -238184279#1 -1102785239"/>
    </vehicle>
    <vehicle id="21" type="passenger" depart="18.90">
        <route edges="-238184278 326557690#2 326557690#3 326557690#4 326557690#5 326557690#6 326557690#7 326557690#10 326557690#11 326557690#12 326557690#13 326557690#14 326557690#15 -238184282#1 -238184282#0 114817857#0 114817857#1 -238184275#3 -238184275#2 -238184275#1 -238184275#0"/>
    </vehicle>
    <vehicle id="22" type="passenger" depart="19.80">
        <route edges="-1102785246 326557690#5 326557690#6 326557690#7 326557690#10 325929761#0 -1182399616"/>
    </vehicle>
    <vehicle id="23" type="passenger" depart="20.70">
        <route edges="-114817857#2 -238184275#3 -238184275#2 -238184275#1 -238184275#0"/>
    </vehicle>
    <vehicle id="24" type="passenger" depart="21.60">
        <route edges="114817850 326557690#4 326557690#5 326557690#6 326557690#7 326557690#10 326557690#11 326557690#12 326557690#13 326557690#14 326557690#15 -238184282#1 -238184282#0 114817857#0 114817857#1 -238184275#3 1102785234 -325929768#0"/>
    </vehicle>
    <vehicle id="25" type="passenger" depart="22.50">
        <route edges="-326557690#16 -238184282#1 -238184282#0 238184281#4 -114817854#1 -114817847 -114817857#1"/>
    </vehicle>
    <vehicle id="26" type="passenger" depart="23.40">
        <route edges="-238185296 114817854#1 114817854#2 114817854#3 -326557690#16 -326557690#15 -326557690#14 -326557690#13 -326557690#12 -326557690#11 -326557690#10 -326557690#7 -326557690#6 667001221"/>
    </vehicle>
    <vehicle id="27" type="passenger" depart="24.30">
        <route edges="114817854#0 -114817847 114817857#2"/>
    </vehicle>
    <vehicle id="28" type="passenger" depart="25.20">
        <route edges="-1433092915 238184275#1 238184275#2 238184275#3 114817847 238185296"/>
    </vehicle>
    <vehicle id="29" type="passenger" depart="26.10">
        <route edges="-1433092915 238184275#1 -325929768#1 -325929768#0"/>
    </vehicle>
    <vehicle id="30" type="passenger" depart="27.00">
        <route edges="735056335#0 735056335#1 326557690#4 326557690#5 326557690#6 326557690#7 1382916440#0"/>
    </vehicle>
    <vehicle id="31" type="passenger" depart="27.90">
        <route edges="-995100109 238184277"/>
    </vehicle>
    <vehicle id="32" type="passenger" depart="28.80">
        <route edges="325929761#1 325929761#2"/>
    </vehicle>
    <vehicle id="33" type="passenger" depart="29.70">
        <route edges="-238184278 326557690#2 326557690#3 326557690#4 326557690#5 326557690#6 326557690#7 326557690#10 326557690#11 326557690#12 326557690#13 -238184279#1 -1102785239"/>
    </vehicle>
    <vehicle id="34" type="passenger" depart="30.60">
        <route edges="-325929761#2 -325929761#1 -325929761#0 -326557690#10 -326557690#7 -326557690#6 -326557690#5 -326557690#4 -735056335#1 -1429229202#0"/>
    </vehicle>
    <vehicle id="35" type="passenger" depart="31.50">
        <route edges="-238184277 -1429229202#1 735056335#1"/>
    </vehicle>
    <vehicle id="36" type="passenger" depart="32.40">
        <route edges="326557690#0 326557690#2 326557690#3 326557690#4 326557690#5 326557690#6 326557690#7 326557690#10 326557690#11 326557690#12 326557690#13 -238184279#1 -238184279#0 -238184281#0"/>
    </vehicle>
    <vehicle id="37" type="passenger" depart="33.30">
        <route edges="114817854#0 114817854#1 114817854#2 114817854#3 -326557690#16 -326557690#15 -326557690#14 -326557690#13 -326557690#12 -326557690#11 -326557690#10 -326557690#7 -326557690#6 -326557690#5 -326557690#4 -326557690#3 -326557690#2 -326557690#0"/>
    </vehicle>
    <vehicle id="38" type="passenger" depart="34.20">
        <route edges="-326557690#15 -326557690#14 -326557690#13 -326557690#12 -326557690#11 -326557690#10 -326557690#7 -326557690#6 -326557690#5 -326557690#4 -326557690#3 -326557690#2 -667751249#1 -667751249#0"/>
    </vehicle>
    <vehicle id="39" type="passenger" depart="35.10">
        <route edges="-326557690#16 -326557690#15 -326557690#14 -326557690#13 -326557690#12 -326557690#11 -326557690#10 -326557690#7 -326557690#6 -326557690#5 -326557690#4 -735056335#1 -1429229202#0"/>
    </vehicle>
    <vehicle id="40" type="passenger" depart="36.00">
        <route edges="238184275#2 238184275#3 -114817857#1 -114817857#0 238184282#0 238184282#1 -326557690#15 -326557690#14 -326557690#13 -326557690#12 -326557690#11 -326557690#10 -326557690#7 -326557690#6 -326557690#5 -326557690#4 -735056335#1 -1429229202#0"/>
    </vehicle>
    <vehicle id="41" type="passenger" depart="36.90">
        <route edges="1102785239 238184279#1 -326557690#13 -326557690#12 -326557690#11 -326557690#10 667001220#0 667001220#1"/>
    </vehicle>
    <vehicle id="43" type="passenger" depart="38.70">
        <route edges="995099260 238184282#1 -326557690#15 -326557690#14 -326557690#13 -326557690#12 -326557690#11 -326557690#10 -326557690#7 -326557690#6 -326557690#5 -326557690#4 -735056335#1 -735056335#0"/>
    </vehicle>
    <vehicle id="44" type="passenger" depart="39.60">
        <route edges="-114817854#2 -238184281#4 -238184281#2 -238184281#1 238184279#0 -1102785239"/>
    </vehicle>
    <vehicle id="45" type="passenger" depart="40.50">
        <route edges="-114817857#2 -114817857#1 1382916439#0 1382916439#2"/>
    </vehicle>
    <vehicle id="46" type="passenger" depart="41.40">
        <route edges="1429229202#0 735056335#1 326557690#4 326557690#5 326557690#6 326557690#7 326557690#10 326557690#11"/>
    </vehicle>
    <vehicle id="47" type="passenger" depart="42.30">
        <route edges="-1102785246 326557690#5 326557690#6 326557690#7 326557690#10 326557690#11 326557690#12 326557690#13 326557690#14 326557690#15 -238184282#1 -238184282#0 114817857#0 114817857#1 -238184275#3 1102785234 -325929768#0"/>
    </vehicle>
    <vehicle id="48" type="passenger" depart="43.20">
        <route edges="735056335#1 -326557690#3 -326557690#2 1102785245"/>
    </vehicle>
    <vehicle id="49" type="passenger" depart="44.10">
        <route edges="735056335#0 735056335#1 326557690#4 326557690#5 326557690#6 326557690#7 326557690#10 326557690#11 326557690#12 326557690#13 326557690#14 326557690#15 326557690#16 326557690#17"/>
    </vehicle>
    <vehicle id="50" type="passenger" depart="45.00">
        <route edges="-1102785233#1 238184275#1 238184275#2 238184275#3 -114817857#1 -114817857#0 238184281#4"/>
    </vehicle>
    <vehicle id="51" type="passenger" depart="45.90">
        <route edges="114817857#0 1382916439#0 1382916439#2 1433092893#0 1433092893#1 -326557690#7 -326557690#6 -326557690#5 -326557690#4 -326557690#3 -326557690#2 1102785245"/>
    </vehicle>
    <vehicle id="52" type="passenger" depart="46.80">
        <route edges="-238185296 -114817847 -114817857#1 1382916439#0 1382916439#2 1433092893#0 1433092893#1"/>
    </vehicle>
    <vehicle id="53" type="passenger" depart="47.70">
        <route edges="-114817857#2 -114817857#1 -114817857#0 238184281#4 114817854#2 114817854#3 -326557690#16"/>
    </vehicle>
    <vehicle id="54" type="passenger" depart="48.60">
        <route edges="-667001221 326557690#6 326557690#7 326557690#10 325929761#0 325929761#1 791724435"/>
    </vehicle>
    <vehicle id="55" type="passenger" depart="49.50">
        <route edges="326557690#0 326557690#2 326557690#3 -735056335#1 -1429229202#0"/>
    </vehicle>
    <vehicle id="56" type="passenger" depart="50.40">
        <route edges="-791724424 326557690#14 326557690#15 326557690#16 -114817854#3 -114817854#2 -114817854#1 -114817854#0"/>
    </vehicle>
    <vehicle id="57" type="passenger" depart="51.30">
        <route edges="-326557690#14 -326557690#13 -326557690#12 -326557690#11 -326557690#10 -326557690#7 -326557690#6 -326557690#5"/>
    </vehicle>
    <vehicle id="58" type="passenger" depart="52.20">
        <route edges="-325929761#2 -325929761#1 -325929761#0 -326557690#10 1382916440#0 1382916440#1"/>
    </vehicle>
    <vehicle id="59" type="passenger" depart="53.10">
        <route edges="1102785244 667751249#1 326557690#2 326557690#3 -114817850"/>
    </vehicle>
    <vehicle id="60" type="passenger" depart="54.00">
        <route edges="1227941495 -326557690#15 -326557690#14 -326557690#13 -326557690#12 -326557690#11 -326557690#10 -326557690#7 -326557690#6 -326557690#5 -326557690#4 -326557690#3 -326557690#2 1102785245"/>
    </vehicle>
    <vehicle id="61" type="passenger" depart="54.90">
        <route edges="1429229202#0 735056335#1 -326557690#3 -326557690#2 1102785245"/>
    </vehicle>
    <vehicle id="62" type="passenger" depart="55.80">
        <route edges="-1102785233#1 238184275#1 238184275#2 238184275#3 -114817857#1 -114817857#0 -238184281#2 -238184281#1 -238184281#0"/>
    </vehicle>
    <vehicle id="63" type="passenger" depart="56.70">
        <route edges="-1102785233#1 238184275#1 238184275#2 238184275#3 -114817857#1 -114817857#0 238184282#0 238184282#1 -326557690#15 -326557690#14 -326557690#13 -326557690#12 -326557690#11 -326557690#10 -326557690#7 -326557690#6 667001221"/>
    </vehicle>
    <vehicle id="64" type="passenger" depart="57.60">
        <route edges="326557690#0 326557690#2 326557690#3 326557690#4 326557690#5 326557690#6 326557690#7 326557690#10 326557690#11 326557690#12 326557690#13 326557690#14 326557690#15"/>
    </vehicle>
    <vehicle id="65" type="passenger" depart="58.50">
        <route edges="-325929761#2 -325929761#1 -325929761#0 326557690#11 326557690#12 326557690#13 326557690#14 -1102785241"/>
    </vehicle>
    <vehicle id="66" type="passenger" depart="59.40">
        <route edges="326557690#0 326557690#2 326557690#3 326557690#4 326557690#5 326557690#6 326557690#7 326557690#10 325929761#0 325929761#1 791724435"/>
    </vehicle>
    <vehicle id="67" type="passenger" depart="60.30">
        <route edges="-114817847 -114817857#1 -114817857#0 238184282#0 238184282#1 -326557690#15 -326557690#14 -326557690#13 -326557690#12 -326557690#11 -326557690#10 -326557690#7 -326557690#6 -326557690#5 -326557690#4 -326557690#3 -326557690#2 -667751249#1"/>
    </vehicle>
    <vehicle id="68" type="passenger" depart="61.20">
        <route edges="-1102785246 326557690#5 326557690#6 326557690#7 326557690#10 325929761#0 325929761#1 325929761#2"/>
    </vehicle>
    <vehicle id="69" type="passenger" depart="62.10">
        <route edges="1382916439#0 1382916439#2 1433092893#0 1433092893#1 -326557690#7 -326557690#6 -326557690#5 -326557690#4 -326557690#3 -326557690#2 -667751249#1 -1102785244"/>
    </vehicle>
    <vehicle id="70" type="passenger" depart="63.00">
        <route edges="-735056335#1 1429229202#1 660094161 -326557690#2 1102785245"/>
    </vehicle>
    <vehicle id="71" type="passenger" depart="63.90">
        <route edges="-326557690#16 -326557690#15 -326557690#14 -326557690#13 -326557690#12 -326557690#11 -326557690#10 -326557690#7 -326557690#6 -326557690#5"/>
    </vehicle>
    <vehicle id="72" type="passenger" depart="64.80">
        <route edges="-667001220#1 -667001220#0 326557690#10 325929761#0 -1182399616"/>
    </vehicle>
    <vehicle id="73" type="passenger" depart="65.70">
        <route edges="-995100109 660094161 326557690#3 326557690#4 326557690#5 326557690#6 326557690#7 326557690#10 326557690#11 326557690#12 326557690#13 326557690#14 326557690#15 326557690#16 -114817854#3 -114817854#2 -114817854#1 238185296"/>
    </vehicle>
    <vehicle id="74" type="passenger" depart="66.60">
        <route edges="-238184277 660094161 326557690#3 326557690#4 326557690#5 326557690#6 326557690#7 326557690#10 326557690#11 326557690#12 326557690#13 326557690#14 -238184280"/>
    </vehicle>
    <vehicle id="75" type="passenger" depart="67.50">
        <route edges="735056335#1 326557690#4 326557690#5 326557690#6 326557690#7 326557690#10 326557690#11 326557690#12 326557690#13 326557690#14 326557690#15 -238184282#1 -238184282#0 114817857#0 114817857#1 -238184275#3 -238184275#2 -238184275#1 1433092915"/>
    </vehicle>
    <vehicle id="76" type="passenger" depart="68.40">
        <route edges="-667001220#1 -1102785247 -326557690#6 -326557690#5 -326557690#4 -735056335#1"/>
    </vehicle>
    <vehicle id="77" type="passenger" depart="69.30">
        <route edges="-114817857#2 -114817857#1 -114817857#0 238184282#0 238184282#1 -326557690#15 -326557690#14 -326557690#13 -326557690#12 -326557690#11 325929761#0 -1182399616"/>
    </vehicle>
    <vehicle id="78" type="passenger" depart="70.20">
        <route edges="-325929767 326557690#13 326557690#14 326557690#15 -238184282#1 -995099260 114817854#3"/>
    </vehicle>
    <vehicle id="79" type="passenger" depart="71.10">
        <route edges="-238184278 326557690#2 326557690#3 326557690#4 326557690#5 326557690#6 326557690#7 326557690#10 325929761#0 -1182399616"/>
    </vehicle>
    <vehicle id="80" type="passenger" depart="72.00">
        <route edges="-1102785246 326557690#5 326557690#6 326557690#7 1382916440#0"/>
    </vehicle>
    <vehicle id="81" type="passenger" depart="72.90">
        <route edges="-238184278 326557690#2 326557690#3 326557690#4 326557690#5 326557690#6 1102785247 667001220#1"/>
    </vehicle>
    <vehicle id="82" type="passenger" depart="73.80">
        <route edges="325929768#0 -1102785234 238184275#3 -114817857#1 -114817857#0 238184282#0 238184282#1 -326557690#15 -1102785241"/>
    </vehicle>
    <vehicle id="83" type="passenger" depart="74.70">
        <route edges="-238184278 326557690#2 326557690#3 326557690#4 326557690#5 326557690#6 326557690#7 326557690#10 326557690#11 326557690#12 326557690#13 326557690#14 326557690#15 -238184282#1 -238184282#0 114817857#0 114817857#1 -238184275#3 -238184275#2 -238184275#1 1433092915"/>
    </vehicle>
    <vehicle id="84" type="passenger" depart="75.60">
        <route edges="-238184277 660094161 -326557690#2 -667751249#1 -1102785244"/>
    </vehicle>
    <vehicle id="85" type="passenger" depart="76.50">
        <route edges="660094161 326557690#3 326557690#4 1102785246"/>
    </vehicle>
    <vehicle id="87" type="passenger" depart="78.30">
        <route edges="1433092893#1 326557690#10 326557690#11 326557690#12 326557690#13 326557690#14 326557690#15 326557690#16 -114817854#3 -114817854#2 -114817854#1 -114817854#0"/>
    </vehicle>
    <vehicle id="88" type="passenger" depart="79.20">
        <route edges="-114817857#0 238184282#0 238184282#1 -326557690#15"/>
    </vehicle>
    <vehicle id="89" type="passenger" depart="80.10">
        <route edges="-667001220#1 -1102785247 -326557690#6 -326557690#5 -326557690#4 -326557690#3 -326557690#2 -667751249#1 -667751249#0"/>
    </vehicle>
    <vehicle id="90" type="passenger" depart="81.00">
        <route edges="1227941494 326557690#15 -238184282#1 -238184282#0 114817857#0 114817857#1 -238184275#3 1102785234"/>
    </vehicle>
    <vehicle id="91" type="passenger" depart="81.90">
        <route edges="735056335#0 735056335#1 326557690#4 326557690#5 326557690#6 326557690#7 326557690#10 326557690#11 326557690#12 326557690#13 -1102785242"/>
    </vehicle>
    <vehicle id="92" type="passenger" depart="82.80">
        <route edges="735056335#1 326557690#4 326557690#5 326557690#6 326557690#7 326557690#10 326557690#11 326557690#12 326557690#13 -238184279#1 -238184279#0 -238184281#0"/>
    </vehicle>
    <vehicle id="93" type="passenger" depart="83.70">
        <route edges="325929768#0 -1102785234 238184275#3 -114817857#1 -114817857#0 238184282#0 238184282#1 -326557690#15 -326557690#14 -326557690#13 -326557690#12 -326557690#11 -326557690#10 -326557690#7 -326557690#6 -326557690#5 -326557690#4 -735056335#1 -1429229202#0"/>
    </vehicle>
    <vehicle id="94" type="passenger" depart="84.60">
        <route edges="238184275#3 -114817857#1 -114817857#0 238184282#0 238184282#1 -326557690#15 -326557690#14 -326557690#13 -326557690#12 -326557690#11 -326557690#10 -326557690#7 -326557690#6"/>
    </vehicle>
    <vehicle id="95" type="passenger" depart="85.50">
        <route edges="-667001220#1 -667001220#0 326557690#10 326557690#11 326557690#12 326557690#13 326557690#14 326557690#15 -238184282#1 -238184282#0 114817857#0 114817857#1 -238184275#3 -238184275#2 -238184275#1 -238184275#0"/>
    </vehicle>
    <vehicle id="96" type="passenger" depart="86.40">
        <route edges="-326557690#14 -326557690#13 -326557690#12 -326557690#11 -326557690#10 -326557690#7 -326557690#6 667001221"/>
    </vehicle>
    <vehicle id="97" type="passenger" depart="87.30">
        <route edges="-667001220#1 -667001220#0 326557690#10 326557690#11 326557690#12 326557690#13 326557690#14 326557690#15 326557690#16 326557690#17"/>
    </vehicle>
    <vehicle id="98" type="passenger" depart="88.20">
        <route edges="-995100109 660094161 326557690#3 326557690#4 326557690#5 326557690#6 326557690#7 326557690#10 326557690#11 326557690#12 326557690#13 -238184279#1 -1102785239"/>
    </vehicle>
    <vehicle id="99" type="passenger" depart="89.10">
        <route edges="995099260 238184282#1 326557690#16 326557690#17"/>
    </vehicle>
    <vehicle id="100" type="passenger" depart="90.00">
        <route edges="735056335#0 735056335#1 326557690#4 326557690#5 667001221"/>
    </vehicle>
    <vehicle id="101" type="passenger" depart="90.90">
        <route edges="325929768#0 -1102785234 238184275#3 -114817857#1 -114817857#0 238184282#0 238184282#1 -326557690#15 -326557690#14 -326557690#13 -326557690#12 -326557690#11 -326557690#10 -326557690#7 -326557690#6 -326557690#5 -326557690#4 -114817850"/>
    </vehicle>
    <vehicle id="102" type="passenger" depart="91.80">
        <route edges="-791724424 -326557690#13 -326557690#12 -326557690#11 325929761#0 -1182399616"/>
    </vehicle>
    <vehicle id="104" type="passenger" depart="93.60">
        <route edges="-326557690#17 -326557690#16 -326557690#15 -326557690#14 -326557690#13 -326557690#12 -326557690#11 -326557690#10 -326557690#7 -326557690#6 -326557690#5 -326557690#4 -326557690#3 -660094161 995100109"/>
    </vehicle>
    <vehicle id="105" type="passenger" depart="94.50">
        <route edges="-326557690#16 -326557690#15 -326557690#14 -326557690#13 -326557690#12 -326557690#11 325929761#0 325929761#1 325929761#2"/>
    </vehicle>
    <vehicle id="106" type="passenger" depart="95.40">
        <route edges="-667001221 326557690#6 326557690#7 326557690#10 326557690#11 326557690#12"/>
    </vehicle>
    <vehicle id="107" type="passenger" depart="96.30">
        <route edges="667751249#0 667751249#1 326557690#2 -660094161 995100109"/>
    </vehicle>
    <vehicle id="108" type="passenger" depart="97.20">
        <route edges="-995100109 660094161 326557690#3 326557690#4 326557690#5 326557690#6 326557690#7 326557690#10 326557690#11 326557690#12 326557690#13 326557690#14 -238184280 238184281#2 238184281#4"/>
    </vehicle>
    <vehicle id="109" type="passenger" depart="98.10">
        <route edges="-1382916439#2 -1382916439#0 114817857#1 -238184275#3 -238184275#2 -238184275#1 -238184275#0"/>
    </vehicle>
    <vehicle id="110" type="passenger" depart="99.00">
        <route edges="735056335#0 735056335#1 326557690#4 326557690#5 326557690#6 1102785247"/>
    </vehicle>
    <vehicle id="111" type="passenger" depart="99.90">
        <route edges="-995100109 660094161 326557690#3 326557690#4 326557690#5 326557690#6 326557690#7 326557690#10 326557690#11 326557690#12 326557690#13 326557690#14 326557690#15 326557690#16 -114817854#3 -114817854#2 -114817854#1 238185296"/>
    </vehicle>
    <vehicle id="112" type="passenger" depart="100.80">
        <route edges="-1102785246 326557690#5 326557690#6 326557690#7 326557690#10 326557690#11 326557690#12 326557690#13 326557690#14 326557690#15 -238184282#1 -238184282#0 114817857#0 114817857#1 114817847 114817854#1"/>
    </vehicle>
    <vehicle id="113" type="passenger" depart="101.70">
        <route edges="-791724424 326557690#14 326557690#15 326557690#16 326557690#17"/>
    </vehicle>
    <vehicle id="114" type="passenger" depart="102.60">
        <route edges="-1429229202#1 735056335#1 326557690#4 326557690#5 326557690#6 326557690#7 326557690#10 325929761#0 325929761#1 791724435"/>
    </vehicle>
    <vehicle id="115" type="passenger" depart="103.50">
        <route edges="-1102785246 326557690#5 326557690#6 326557690#7 326557690#10 326557690#11 326557690#12 326557690#13 326557690#14 326557690#15 326557690#16 -114817854#3 -114817854#2 -114817854#1 -114817854#0"/>
    </vehicle>
    <vehicle id="116" type="passenger" depart="104.40">
        <route edges="1102785244 667751249#1 326557690#2 326557690#3 326557690#4 326557690#5 326557690#6 326557690#7 326557690#10 326557690#11 326557690#12 326557690#13 326557690#14 326557690#15 -238184282#1 -238184282#0 114817857#0 114817857#1 -238184275#3"/>
    </vehicle>
    <vehicle id="117" type="passenger" depart="105.30">
        <route edges="-238184278 -667751249#1 -1102785244"/>
    </vehicle>
    <vehicle id="118" type="passenger" depart="106.20">
        <route edges="326557690#0 326557690#2 326557690#3 -735056335#1 -1429229202#0"/>
    </vehicle>
    <vehicle id="119" type="passenger" depart="107.10">
        <route edges="1102785244 667751249#1 326557690#2 326557690#3 326557690#4 326557690#5 326557690#6 326557690#7 326557690#10 326557690#11 326557690#12 326557690#13 326557690#14 326557690#15 -238184282#1 -238184282#0 114817857#0 114817857#1 114817857#2"/>
    </vehicle>
    <vehicle id="120" type="passenger" depart="108.00">
        <route edges="-667001220#0 326557690#10 326557690#11 326557690#12 326557690#13 326557690#14 326557690#15 -238184282#1 -238184282#0 114817857#0 114817857#1 114817847 114817854#1"/>
    </vehicle>
    <vehicle id="121" type="passenger" depart="108.90">
        <route edges="-791724435 -325929761#1 -325929761#0 -326557690#10 -326557690#7 -326557690#6 667001221"/>
    </vehicle>
    <vehicle id="122" type="passenger" depart="109.80">
        <route edges="-238184277 660094161 326557690#3 326557690#4 326557690#5 326557690#6 326557690#7 326557690#10 326557690#11 326557690#12 326557690#13 326557690#14 -238184280 238184281#2"/>
    </vehicle>
    <vehicle id="123" type="passenger" depart="110.70">
        <route edges="-238184278 -326557690#0"/>
    </vehicle>
    <vehicle id="124" type="passenger" depart="111.60">
        <route edges="114817854#0 -114817847 -238184275#3 -238184275#2 -238184275#1"/>
    </vehicle>
    <vehicle id="125" type="passenger" depart="112.50">
        <route edges="-325929761#2 -325929761#1 -325929761#0 326557690#11 326557690#12 326557690#13 326557690#14 326557690#15 326557690#16 -114817854#3 -114817854#2 -114817854#1 238185296"/>
    </vehicle>
    <vehicle id="126" type="passenger" depart="113.40">
        <route edges="-1102785246 -326557690#4 -326557690#3 -326557690#2 -667751249#1 -667751249#0"/>
    </vehicle>
    <vehicle id="127" type="passenger" depart="114.30">
        <route edges="995099260 238184282#1 -326557690#15 -326557690#14 -326557690#13 -326557690#12 -326557690#11 -326557690#10 -326557690#7 -326557690#6 -326557690#5 -326557690#4 -326557690#3 -660094161 995100109"/>
    </vehicle>
    <vehicle id="128" type="passenger" depart="115.20">
        <route edges="-1102785246 326557690#5 326557690#6 326557690#7 326557690#10 325929761#0 -1182399616"/>
    </vehicle>
    <vehicle id="129" type="passenger" depart="116.10">
        <route edges="-326557690#16 -326557690#15 -326557690#14 -326557690#13 -326557690#12 -326557690#11 -326557690#10 -326557690#7 -326557690#6 667001221"/>
    </vehicle>
    <vehicle id="130" type="passenger" depart="117.00">
        <route edges="326557690#0 326557690#2 326557690#3"/>
    </vehicle>
    <vehicle id="131" type="passenger" depart="117.90">
        <route edges="-326557690#16 -326557690#15 -326557690#14 -326557690#13 -326557690#12 -326557690#11 -326557690#10 -326557690#7 -326557690#6 -326557690#5 -326557690#4 -114817850"/>
    </vehicle>
    <vehicle id="132" type="passenger" depart="118.80">
        <route edges="238184281#4 114817854#2 114817854#3 -326557690#16 -326557690#15 -326557690#14 -326557690#13 -326557690#12 -326557690#11 -326557690#10 -326557690#7 -326557690#6 -326557690#5 -326557690#4 -326557690#3 -660094161 238184277"/>