<?xml version="1.0" encoding="UTF-8"?>

<!-- generated on 2025-12-26 23:17:27 by Eclipse SUMO netconvert Version 1.18.0
<configuration xmlns:xsi="http://www.w3.org/2001/XMLSchema-instance" xsi:noNamespaceSchemaLocation="http://sumo.dlr.de/xsd/netconvertConfiguration.xsd">

    <input>
        <osm-files value="app/sumo/network/hebbal.osm"/>
    </input>

    <output>
        <output-file value="app/sumo/network/hebbal.net.xml"/>
    </output>

    <projection>
        <proj.utm value="true"/>
    </projection>

    <processing>
        <geometry.remove value="true"/>
        <roundabouts.guess value="true"/>
    </processing>

    <tls_building>
        <tls.discard-simple value="false"/>
        <tls.guess value="true"/>
        <tls.guess.threshold value="9"/>
        <tls.join value="true"/>
        <tls.join-dist value="60"/>
        <tls.default-type value="static"/>
    </tls_building>

    <ramp_guessing>
        <ramps.guess value="true"/>
    </ramp_guessing>

    <edge_removal>
        <keep-edges.by-vclass value="passenger,bus,taxi,delivery"/>
        <remove-edges.isolated value="true"/>
    </edge_removal>

    <junctions>
        <no-turnarounds value="true"/>
        <junctions.join value="true"/>
    </junctions>

</configuration>
-->

<net version="1.16" junctionCornerDetail="5" limitTurnSpeed="5.50" xmlns:xsi="http://www.w3.org/2001/XMLSchema-instance" xsi:noNamespaceSchemaLocation="http://sumo.dlr.de/xsd/net_file.xsd">

    <location netOffset="-780849.00,-1442175.99" convBoundary="0.00,0.00,1017.59,678.83" origBoundary="77.589455,13.032582,77.598816,13.038707" projParameter="+proj=utm +zone=43 +ellps=WGS84 +datum=WGS84 +units=m +no_defs"/>

    <type id="highway.residential" priority="3" numLanes="1" speed="13.89" disallow="tram rail_urban rail rail_electric rail_fast ship" oneway="0"/>
    <type id="highway.service" priority="1" numLanes="1" speed="5.56" allow="pedestrian delivery bicycle" oneway="0"/>
    <type id="highway.tertiary" priority="10" numLanes="1" speed="22.22" disallow="tram rail_urban rail rail_electric rail_fast ship" oneway="0"/>

    <edge id=":10091468312_0" function="internal">
        <lane id=":10091468312_0_0" index="0" disallow="tram rail_urban rail rail_electric rail_fast ship" speed="13.89" length="14.60" shape="465.68,248.90 451.72,253.15"/>
    </edge>
    <edge id=":10091468312_1" function="internal">
        <lane id=":10091468312_1_0" index="0" disallow="tram rail_urban rail rail_electric rail_fast ship" speed="7.87" length="4.28" shape="465.68,248.90 461.73,249.58 461.47,249.52"/>
    </edge>
    <edge id=":10091468312_6" function="internal">
        <lane id=":10091468312_6_0" index="0" disallow="tram rail_urban rail rail_electric rail_fast ship" speed="7.87" length="10.22" shape="461.47,249.52 458.59,248.79 456.28,246.53 454.79,242.80"/>
    </edge>
    <edge id=":10091468312_2" function="internal">
        <lane id=":10091468312_2_0" index="0" disallow="tram rail_urban rail rail_electric rail_fast ship" speed="6.34" length="9.04" shape="457.91,242.05 458.83,244.38 460.27,245.79 462.23,246.28 464.69,245.85"/>
    </edge>
    <edge id=":10091468312_3" function="internal">
        <lane id=":10091468312_3_0" index="0" disallow="tram rail_urban rail rail_electric rail_fast ship" speed="8.16" length="14.36" shape="457.91,242.05 458.31,246.03 457.41,249.20 455.22,251.58 451.72,253.15"/>
    </edge>
    <edge id=":10091468312_4" function="internal">
        <lane id=":10091468312_4_0" index="0" disallow="tram rail_urban rail rail_electric rail_fast ship" speed="6.70" length="9.35" shape="450.85,250.07 453.10,249.05 454.50,247.50 455.07,245.42 454.79,242.80"/>
    </edge>
    <edge id=":10091468312_5" function="internal">
        <lane id=":10091468312_5_0" index="0" disallow="tram rail_urban rail rail_electric rail_fast ship" speed="13.89" length="14.47" shape="450.85,250.07 464.69,245.85"/>
    </edge>
    <edge id=":10091468313_0" function="internal">
        <lane id=":10091468313_0_0" index="0" disallow="tram rail_urban rail rail_electric rail_fast ship" speed="6.60" length="9.26" shape="448.33,211.74 447.53,209.27 446.18,207.64 444.26,206.85 441.79,206.89"/>
    </edge>
    <edge id=":10091468313_1" function="internal">
        <lane id=":10091468313_1_0" index="0" disallow="tram rail_urban rail rail_electric rail_fast ship" speed="7.87" length="14.49" shape="448.33,211.74 448.19,207.73 449.40,204.73 451.95,202.75 455.85,201.78"/>
    </edge>
    <edge id=":10091468313_2" function="internal">
        <lane id=":10091468313_2_0" index="0" disallow="tram rail_urban rail rail_electric rail_fast ship" speed="6.35" length="9.04" shape="456.17,204.96 453.74,205.57 452.15,206.80 451.39,208.67 451.48,211.18"/>
    </edge>
    <edge id=":10091468313_3" function="internal">
        <lane id=":10091468313_3_0" index="0" disallow="tram rail_urban rail rail_electric rail_fast ship" speed="13.89" length="14.51" shape="456.17,204.96 441.79,206.89"/>
    </edge>
    <edge id=":10091468313_4" function="internal">
        <lane id=":10091468313_4_0" index="0" disallow="tram rail_urban rail rail_electric rail_fast ship" speed="13.89" length="14.72" shape="441.26,203.74 455.85,201.78"/>
    </edge>
    <edge id=":10091468313_5" function="internal">
        <lane id=":10091468313_5_0" index="0" disallow="tram rail_urban rail rail_electric rail_fast ship" speed="8.08" length="4.28" shape="441.26,203.74 445.13,203.66 445.51,203.81"/>
    </edge>
    <edge id=":10091468313_6" function="internal">
        <lane id=":10091468313_6_0" index="0" disallow="tram rail_urban rail rail_electric rail_fast ship" speed="8.08" length="10.11" shape="445.51,203.81 448.13,204.87 450.24,207.38 451.48,211.18"/>
    </edge>
    <edge id=":10091468314_0" function="internal">
        <lane id=":10091468314_0_0" index="0" disallow="tram rail_urban rail rail_electric rail_fast ship" speed="22.22" length="9.58" shape="464.46,445.32 455.12,447.46"/>
    </edge>
    <edge id=":10091468314_1" function="internal">
        <lane id=":10091468314_1_0" index="0" allow="pedestrian delivery bicycle" speed="7.14" length="3.16" shape="464.46,445.32 461.83,445.54 461.33,445.38"/>
    </edge>
    <edge id=":10091468314_6" function="internal">
        <lane id=":10091468314_6_0" index="0" allow="pedestrian delivery bicycle" speed="7.14" length="7.14" shape="461.33,445.38 459.64,444.82 457.89,443.14 456.59,440.51"/>
    </edge>
    <edge id=":10091468314_2" function="internal">
        <lane id=":10091468314_2_0" index="0" allow="pedestrian delivery bicycle" speed="5.41" length="5.49" shape="459.61,439.45 460.32,440.93 461.23,441.88 462.36,442.30 463.69,442.21"/>
    </edge>
    <edge id=":10091468314_3" function="internal">
        <lane id=":10091468314_3_0" index="0" allow="pedestrian delivery bicycle" speed="6.77" length="10.80" shape="459.61,439.45 460.19,442.41 459.63,444.73 457.94,446.42 455.12,447.46"/>
    </edge>
    <edge id=":10091468314_4" function="internal">
        <lane id=":10091468314_4_0" index="0" allow="pedestrian delivery bicycle" speed="4.92" length="5.16" shape="454.44,444.33 455.79,443.83 456.60,443.03 456.86,441.92 456.59,440.51"/>
    </edge>
    <edge id=":10091468314_5" function="internal">
        <lane id=":10091468314_5_0" index="0" disallow="tram rail_urban rail rail_electric rail_fast ship" speed="22.22" length="9.49" shape="454.44,444.33 463.69,442.21"/>
    </edge>
    <edge id=":10091468315_0" function="internal">
        <lane id=":10091468315_0_0" index="0" allow="pedestrian delivery bicycle" speed="5.25" length="5.21" shape="432.39,359.32 431.82,358.11 430.94,357.35 429.76,357.03 428.28,357.17"/>
    </edge>
    <edge id=":10091468315_1" function="internal">
        <lane id=":10091468315_1_0" index="0" allow="pedestrian delivery bicycle" speed="5.56" length="9.37" shape="432.39,359.32 429.87,350.30"/>
    </edge>
    <edge id=":10091468315_2" function="internal">
        <lane id=":10091468315_2_0" index="0" allow="pedestrian delivery bicycle" speed="5.56" length="9.30" shape="432.96,349.47 435.46,358.43"/>
    </edge>
    <edge id=":10091468315_3" function="internal">
        <lane id=":10091468315_3_0" index="0" allow="pedestrian delivery bicycle" speed="5.56" length="3.24" shape="432.96,349.47 433.30,352.32 433.19,352.67"/>
    </edge>
    <edge id=":10091468315_6" function="internal">
        <lane id=":10091468315_6_0" index="0" allow="pedestrian delivery bicycle" speed="5.56" length="7.14" shape="433.19,352.67 432.63,354.55 430.96,356.16 428.28,357.17"/>
    </edge>
    <edge id=":10091468315_4" function="internal">
        <lane id=":10091468315_4_0" index="0" allow="pedestrian delivery bicycle" speed="4.99" length="5.05" shape="427.59,354.04 428.90,353.55 429.71,352.77 430.04,351.68 429.87,350.30"/>
    </edge>
    <edge id=":10091468315_5" function="internal">
        <lane id=":10091468315_5_0" index="0" allow="pedestrian delivery bicycle" speed="5.56" length="10.12" shape="427.59,354.04 430.40,353.81 432.65,354.46 434.34,356.00 435.46,358.43"/>
    </edge>
    <edge id=":10091468317_0" function="internal">
        <lane id=":10091468317_0_0" index="0" allow="pedestrian delivery bicycle" speed="5.28" length="5.19" shape="455.74,438.17 455.09,437.01 454.18,436.30 452.98,436.04 451.52,436.24"/>
    </edge>
    <edge id=":10091468317_1" function="internal">
        <lane id=":10091468317_1_0" index="0" allow="pedestrian delivery bicycle" speed="5.56" length="9.30" shape="455.74,438.17 452.85,429.32"/>
    </edge>
    <edge id=":10091468317_2" function="internal">
        <lane id=":10091468317_2_0" index="0" allow="pedestrian delivery bicycle" speed="5.56" length="9.10" shape="455.92,428.43 458.74,437.08"/>
    </edge>
    <edge id=":10091468317_3" function="internal">
        <lane id=":10091468317_3_0" index="0" allow="pedestrian delivery bicycle" speed="5.56" length="3.11" shape="455.92,428.43 456.32,431.23 456.25,431.50"/>
    </edge>
    <edge id=":10091468317_6" function="internal">
        <lane id=":10091468317_6_0" index="0" allow="pedestrian delivery bicycle" speed="5.56" length="7.17" shape="456.25,431.50 455.72,433.46 454.12,435.13 451.52,436.24"/>
    </edge>
    <edge id=":10091468317_4" function="internal">
        <lane id=":10091468317_4_0" index="0" allow="pedestrian delivery bicycle" speed="5.01" length="5.03" shape="450.70,433.14 451.97,432.60 452.75,431.79 453.05,430.69 452.85,429.32"/>
    </edge>
    <edge id=":10091468317_5" function="internal">
        <lane id=":10091468317_5_0" index="0" allow="pedestrian delivery bicycle" speed="5.56" length="10.02" shape="450.70,433.14 453.46,432.79 455.73,433.33 457.49,434.76 458.74,437.08"/>
    </edge>
    <edge id=":10091468320_0" function="internal">
        <lane id=":10091468320_0_0" index="0" allow="pedestrian delivery bicycle" speed="5.04" length="5.00" shape="373.14,390.07 372.65,388.79 371.87,387.98 370.79,387.62 369.43,387.74"/>
    </edge>
    <edge id=":10091468320_1" function="internal">
        <lane id=":10091468320_1_0" index="0" allow="pedestrian delivery bicycle" speed="5.56" length="9.37" shape="373.14,390.07 371.14,380.92"/>
    </edge>
    <edge id=":10091468320_2" function="internal">
        <lane id=":10091468320_2_0" index="0" allow="pedestrian delivery bicycle" speed="5.56" length="9.31" shape="374.28,380.26 376.26,389.37"/>
    </edge>
    <edge id=":10091468320_3" function="internal">
        <lane id=":10091468320_3_0" index="0" allow="pedestrian delivery bicycle" speed="5.56" length="3.19" shape="374.28,380.26 374.45,383.01 374.31,383.42"/>
    </edge>
    <edge id=":10091468320_6" function="internal">
        <lane id=":10091468320_6_0" index="0" allow="pedestrian delivery bicycle" speed="5.56" length="6.93" shape="374.31,383.42 373.70,385.17 372.02,386.75 369.43,387.74"/>
    </edge>
    <edge id=":10091468320_4" function="internal">
        <lane id=":10091468320_4_0" index="0" allow="pedestrian delivery bicycle" speed="5.08" length="5.02" shape="368.72,384.62 370.02,384.12 370.85,383.34 371.23,382.27 371.14,380.92"/>
    </edge>
    <edge id=":10091468320_5" function="internal">
        <lane id=":10091468320_5_0" index="0" allow="pedestrian delivery bicycle" speed="5.56" length="10.16" shape="368.72,384.62 371.50,384.39 373.68,385.10 375.26,386.76 376.26,389.37"/>
    </edge>
    <edge id=":10091468330_0" function="internal">
        <lane id=":10091468330_0_0" index="0" disallow="tram rail_urban rail rail_electric rail_fast ship" speed="6.60" length="9.13" shape="494.27,394.30 493.27,392.04 491.77,390.63 489.76,390.06 487.26,390.34"/>
    </edge>
    <edge id=":10091468330_1" function="internal">
        <lane id=":10091468330_1_0" index="0" disallow="tram rail_urban rail rail_electric rail_fast ship" speed="13.89" length="14.38" shape="494.27,394.30 490.47,380.42"/>
    </edge>
    <edge id=":10091468330_2" function="internal">
        <lane id=":10091468330_2_0" index="0" disallow="tram rail_urban rail rail_electric rail_fast ship" speed="13.89" length="14.34" shape="493.57,379.60 497.35,393.43"/>
    </edge>
    <edge id=":10091468330_3" function="internal">
        <lane id=":10091468330_3_0" index="0" disallow="tram rail_urban rail rail_electric rail_fast ship" speed="7.98" length="4.03" shape="493.57,379.60 494.03,383.48 493.99,383.60"/>
    </edge>
    <edge id=":10091468330_6" function="internal">
        <lane id=":10091468330_6_0" index="0" disallow="tram rail_urban rail rail_electric rail_fast ship" speed="7.98" length="10.21" shape="493.99,383.60 493.13,386.56 490.88,388.85 487.26,390.34"/>
    </edge>
    <edge id=":10091468330_4" function="internal">
        <lane id=":10091468330_4_0" index="0" disallow="tram rail_urban rail rail_electric rail_fast ship" speed="6.48" length="9.03" shape="486.47,387.23 488.77,386.29 490.20,384.84 490.77,382.89 490.47,380.42"/>
    </edge>
    <edge id=":10091468330_5" function="internal">
        <lane id=":10091468330_5_0" index="0" disallow="tram rail_urban rail rail_electric rail_fast ship" speed="8.08" length="14.19" shape="486.47,387.23 490.35,386.81 493.46,387.70 495.79,389.91 497.35,393.43"/>
    </edge>
    <edge id=":10091468338_0" function="internal">
        <lane id=":10091468338_0_0" index="0" disallow="tram rail_urban rail rail_electric rail_fast ship" speed="13.89" length="16.51" shape="177.12,525.97 177.30,529.94 177.01,534.20 176.33,538.42 175.36,542.29"/>
    </edge>
    <edge id=":10091468338_1" function="internal">
        <lane id=":10091468338_1_0" index="0" disallow="tram rail_urban rail rail_electric rail_fast ship" speed="8.37" length="4.32" shape="177.12,525.97 176.93,529.86 176.73,530.23"/>
    </edge>
    <edge id=":10091468338_6" function="internal">
        <lane id=":10091468338_6_0" index="0" disallow="tram rail_urban rail rail_electric rail_fast ship" speed="8.37" length="11.28" shape="176.73,530.23 175.31,532.83 172.25,534.87 167.75,535.98"/>
    </edge>
    <edge id=":10091468338_2" function="internal">
        <lane id=":10091468338_2_0" index="0" disallow="tram rail_urban rail rail_electric rail_fast ship" speed="6.96" length="10.46" shape="167.36,532.81 170.49,532.07 172.63,530.74 173.78,528.84 173.94,526.35"/>
    </edge>
    <edge id=":10091468338_3" function="internal">
        <lane id=":10091468338_3_0" index="0" disallow="tram rail_urban rail rail_electric rail_fast ship" speed="7.47" length="16.11" shape="167.36,532.81 172.09,532.88 175.00,534.48 176.09,537.62 175.36,542.29"/>
    </edge>
    <edge id=":10091468338_4" function="internal">
        <lane id=":10091468338_4_0" index="0" disallow="tram rail_urban rail rail_electric rail_fast ship" speed="5.79" length="9.15" shape="172.30,541.37 172.71,538.72 172.09,536.93 170.44,536.02 167.75,535.98"/>
    </edge>
    <edge id=":10091468338_5" function="internal">
        <lane id=":10091468338_5_0" index="0" disallow="tram rail_urban rail rail_electric rail_fast ship" speed="13.89" length="15.21" shape="172.30,541.37 173.25,537.70 173.89,533.93 174.14,530.12 173.94,526.35"/>
    </edge>
    <edge id=":10091468340_0" function="internal">
        <lane id=":10091468340_0_0" index="0" disallow="tram rail_urban rail rail_electric rail_fast ship" speed="6.51" length="9.02" shape="271.59,512.84 271.01,510.44 269.80,508.80 267.96,507.92 265.49,507.80"/>
    </edge>
    <edge id=":10091468340_1" function="internal">
        <lane id=":10091468340_1_0" index="0" disallow="tram rail_urban rail rail_electric rail_fast ship" speed="8.03" length="14.17" shape="271.59,512.84 271.77,508.96 273.13,506.06 275.69,504.13 279.44,503.17"/>
    </edge>
    <edge id=":10091468340_2" function="internal">
        <lane id=":10091468340_2_0" index="0" disallow="tram rail_urban rail rail_electric rail_fast ship" speed="6.54" length="9.05" shape="279.78,506.35 277.39,506.96 275.76,508.20 274.89,510.06 274.77,512.54"/>
    </edge>
    <edge id=":10091468340_3" function="internal">
        <lane id=":10091468340_3_0" index="0" disallow="tram rail_urban rail rail_electric rail_fast ship" speed="22.22" length="14.37" shape="279.78,506.35 265.49,507.80"/>
    </edge>
    <edge id=":10091468340_4" function="internal">
        <lane id=":10091468340_4_0" index="0" disallow="tram rail_urban rail rail_electric rail_fast ship" speed="22.22" length="14.32" shape="265.19,504.61 279.44,503.17"/>
    </edge>
    <edge id=":10091468340_5" function="internal">
        <lane id=":10091468340_5_0" index="0" disallow="tram rail_urban rail rail_electric rail_fast ship" speed="8.00" length="4.01" shape="265.19,504.61 269.07,504.80 269.18,504.85"/>
    </edge>
    <edge id=":10091468340_6" function="internal">
        <lane id=":10091468340_6_0" index="0" disallow="tram rail_urban rail rail_electric rail_fast ship" speed="8.00" length="10.17" shape="269.18,504.85 271.96,506.18 273.86,508.76 274.77,512.54"/>
    </edge>
    <edge id=":10091468345_0" function="internal">
        <lane id=":10091468345_0_0" index="0" disallow="tram rail_urban rail rail_electric rail_fast ship" speed="6.68" length="9.26" shape="354.23,556.06 353.81,553.64 352.68,551.88 350.84,550.81 348.29,550.41"/>
    </edge>
    <edge id=":10091468345_1" function="internal">
        <lane id=":10091468345_1_0" index="0" disallow="tram rail_urban rail rail_electric rail_fast ship" speed="13.89" length="14.41" shape="354.23,556.06 353.91,541.66"/>
    </edge>
    <edge id=":10091468345_2" function="internal">
        <lane id=":10091468345_2_0" index="0" disallow="tram rail_urban rail rail_electric rail_fast ship" speed="13.89" length="14.41" shape="357.10,541.59 357.43,555.99"/>
    </edge>
    <edge id=":10091468345_3" function="internal">
        <lane id=":10091468345_3_0" index="0" disallow="tram rail_urban rail rail_electric rail_fast ship" speed="7.92" length="4.10" shape="357.10,541.59 356.63,545.52 356.56,545.64"/>
    </edge>
    <edge id=":10091468345_6" function="internal">
        <lane id=":10091468345_6_0" index="0" disallow="tram rail_urban rail rail_electric rail_fast ship" speed="7.92" length="10.26" shape="356.56,545.64 355.00,548.30 352.22,549.93 348.29,550.41"/>
    </edge>
    <edge id=":10091468345_4" function="internal">
        <lane id=":10091468345_4_0" index="0" disallow="tram rail_urban rail rail_electric rail_fast ship" speed="6.41" length="9.04" shape="348.36,547.21 350.84,546.91 352.58,545.88 353.61,544.13 353.91,541.66"/>
    </edge>
    <edge id=":10091468345_5" function="internal">
        <lane id=":10091468345_5_0" index="0" disallow="tram rail_urban rail rail_electric rail_fast ship" speed="8.15" length="14.26" shape="348.36,547.21 352.26,547.83 355.07,549.50 356.79,552.22 357.43,555.99"/>
    </edge>
    <edge id=":10980091036_0" function="internal">
        <lane id=":10980091036_0_0" index="0" disallow="tram rail_urban rail rail_electric rail_fast ship" speed="6.64" length="9.28" shape="455.14,500.72 454.33,498.39 452.93,496.85 450.93,496.12 448.33,496.20"/>
    </edge>
    <edge id=":10980091036_1" function="internal">
        <lane id=":10980091036_1_0" index="0" disallow="tram rail_urban rail rail_electric rail_fast ship" speed="13.89" length="14.48" shape="455.14,500.72 452.14,486.55"/>
    </edge>
    <edge id=":10980091036_2" function="internal">
        <lane id=":10980091036_2_0" index="0" disallow="tram rail_urban rail rail_electric rail_fast ship" speed="13.89" length="14.63" shape="455.26,485.82 458.29,500.13"/>
    </edge>
    <edge id=":10980091036_3" function="internal">
        <lane id=":10980091036_3_0" index="0" disallow="tram rail_urban rail rail_electric rail_fast ship" speed="7.88" length="4.30" shape="455.26,485.82 455.61,489.80 455.52,490.09"/>
    </edge>
    <edge id=":10980091036_6" function="internal">
        <lane id=":10980091036_6_0" index="0" disallow="tram rail_urban rail rail_electric rail_fast ship" speed="7.88" length="10.16" shape="455.52,490.09 454.58,492.86 452.15,494.99 448.33,496.20"/>
    </edge>
    <edge id=":10980091036_4" function="internal">
        <lane id=":10980091036_4_0" index="0" disallow="tram rail_urban rail rail_electric rail_fast ship" speed="6.36" length="9.04" shape="447.82,493.04 450.20,492.29 451.72,490.96 452.37,489.04 452.14,486.55"/>
    </edge>
    <edge id=":10980091036_5" function="internal">
        <lane id=":10980091036_5_0" index="0" disallow="tram rail_urban rail rail_electric rail_fast ship" speed="8.11" length="14.35" shape="447.82,493.04 451.80,492.94 454.87,494.09 457.04,496.49 458.29,500.13"/>
    </edge>
    <edge id=":11393992854_0" function="internal">
        <lane id=":11393992854_0_0" index="0" allow="pedestrian delivery bicycle" speed="4.92" length="5.06" shape="275.31,229.08 274.61,227.82 273.70,227.13 272.60,227.00 271.30,227.44"/>
    </edge>
    <edge id=":11393992854_1" function="internal">
        <lane id=":11393992854_1_0" index="0" allow="pedestrian delivery bicycle" speed="5.56" length="10.14" shape="275.31,229.08 274.66,226.37 275.02,224.09 276.38,222.25 278.75,220.85"/>
    </edge>
    <edge id=":11393992854_2" function="internal">
        <lane id=":11393992854_2_0" index="0" allow="pedestrian delivery bicycle" speed="5.06" length="5.00" shape="279.97,223.81 278.80,224.50 278.13,225.41 277.95,226.54 278.28,227.88"/>
    </edge>
    <edge id=":11393992854_3" function="internal">
        <lane id=":11393992854_3_0" index="0" allow="pedestrian delivery bicycle" speed="5.56" length="9.40" shape="279.97,223.81 271.30,227.44"/>
    </edge>
    <edge id=":11393992854_4" function="internal">
        <lane id=":11393992854_4_0" index="0" allow="pedestrian delivery bicycle" speed="5.56" length="9.40" shape="270.08,224.47 278.75,220.85"/>
    </edge>
    <edge id=":11393992854_5" function="internal">
        <lane id=":11393992854_5_0" index="0" allow="pedestrian delivery bicycle" speed="5.56" length="3.64" shape="270.08,224.47 272.73,223.58 273.57,223.69"/>
    </edge>
    <edge id=":11393992854_6" function="internal">
        <lane id=":11393992854_6_0" index="0" allow="pedestrian delivery bicycle" speed="5.56" length="6.72" shape="273.57,223.69 274.98,223.86 276.83,225.29 278.28,227.88"/>
    </edge>
    <edge id=":11393992855_0" function="internal">
        <lane id=":11393992855_0_0" index="0" allow="pedestrian delivery bicycle" speed="4.77" length="5.17" shape="264.31,234.49 263.85,233.14 263.07,232.38 261.94,232.20 260.49,232.62"/>
    </edge>
    <edge id=":11393992855_1" function="internal">
        <lane id=":11393992855_1_0" index="0" allow="pedestrian delivery bicycle" speed="5.56" length="10.05" shape="264.31,234.49 264.09,231.51 264.56,229.06 265.72,227.14 267.57,225.75"/>
    </edge>
    <edge id=":11393992855_2" function="internal">
        <lane id=":11393992855_2_0" index="0" allow="pedestrian delivery bicycle" speed="5.56" length="5.61" shape="269.03,228.60 268.07,229.35 267.47,230.43 267.25,231.83 267.39,233.56"/>
    </edge>
    <edge id=":11393992855_3" function="internal">
        <lane id=":11393992855_3_0" index="0" allow="pedestrian delivery bicycle" speed="5.56" length="9.44" shape="269.03,228.60 260.49,232.62"/>
    </edge>
    <edge id=":11393992855_4" function="internal">
        <lane id=":11393992855_4_0" index="0" allow="pedestrian delivery bicycle" speed="5.56" length="9.25" shape="259.20,229.69 267.57,225.75"/>
    </edge>
    <edge id=":11393992855_5" function="internal">
        <lane id=":11393992855_5_0" index="0" allow="pedestrian delivery bicycle" speed="5.56" length="3.48" shape="259.20,229.69 262.33,228.78 262.55,228.82"/>
    </edge>
    <edge id=":11393992855_6" function="internal">
        <lane id=":11393992855_6_0" index="0" allow="pedestrian delivery bicycle" speed="5.56" length="7.53" shape="262.55,228.82 264.74,229.13 266.43,230.72 267.39,233.56"/>
    </edge>
    <edge id=":12188226873_0" function="internal">
        <lane id=":12188226873_0_0" index="0" allow="pedestrian delivery bicycle" speed="5.56" length="9.62" shape="203.27,294.24 203.28,303.87"/>
    </edge>
    <edge id=":12188226873_1" function="internal">
        <lane id=":12188226873_1_0" index="0" allow="pedestrian delivery bicycle" speed="5.56" length="3.40" shape="203.27,294.24 202.94,297.03 202.64,297.54"/>
    </edge>
    <edge id=":12188226873_6" function="internal">
        <lane id=":12188226873_6_0" index="0" allow="pedestrian delivery bicycle" speed="5.56" length="6.88" shape="202.64,297.54 201.78,299.03 199.80,300.25 197.00,300.68"/>
    </edge>
    <edge id=":12188226873_2" function="internal">
        <lane id=":12188226873_2_0" index="0" allow="pedestrian delivery bicycle" speed="5.05" length="5.08" shape="196.95,297.48 198.35,297.27 199.33,296.67 199.91,295.69 200.07,294.32"/>
    </edge>
    <edge id=":12188226873_3" function="internal">
        <lane id=":12188226873_3_0" index="0" allow="pedestrian delivery bicycle" speed="5.56" length="10.33" shape="196.95,297.48 199.78,297.85 201.77,299.03 202.94,301.04 203.28,303.87"/>
    </edge>
    <edge id=":12188226873_4" function="internal">
        <lane id=":12188226873_4_0" index="0" allow="pedestrian delivery bicycle" speed="5.00" length="5.04" shape="200.08,303.79 199.92,302.42 199.35,301.44 198.37,300.86 197.00,300.68"/>
    </edge>
    <edge id=":12188226873_5" function="internal">
        <lane id=":12188226873_5_0" index="0" allow="pedestrian delivery bicycle" speed="5.56" length="9.47" shape="200.08,303.79 200.07,294.32"/>
    </edge>
    <edge id=":12188226875_0" function="internal">
        <lane id=":12188226875_0_0" index="0" allow="pedestrian delivery bicycle" speed="5.56" length="24.81" shape="161.36,301.14 136.56,301.49"/>
    </edge>
    <edge id=":12188226875_1" function="internal">
        <lane id=":12188226875_1_0" index="0" allow="pedestrian delivery bicycle" speed="5.56" length="2.07" shape="161.36,301.14 159.43,300.41"/>
    </edge>
    <edge id=":12188226875_6" function="internal">
        <lane id=":12188226875_6_0" index="0" allow="pedestrian delivery bicycle" speed="5.56" length="11.73" shape="159.43,300.41 158.04,299.88 156.52,296.90 157.02,293.59 159.76,291.34"/>
    </edge>
    <edge id=":12188226875_2" function="internal">
        <lane id=":12188226875_2_0" index="0" allow="pedestrian delivery bicycle" speed="5.56" length="12.71" shape="160.74,294.38 156.43,296.00 155.09,297.13 156.72,297.78 161.32,297.94"/>
    </edge>
    <edge id=":12188226875_3" function="internal">
        <lane id=":12188226875_3_0" index="0" allow="pedestrian delivery bicycle" speed="5.56" length="25.25" shape="160.74,294.38 155.66,296.12 148.74,298.46 141.78,300.54 136.56,301.49"/>
    </edge>
    <edge id=":12188226875_4" function="internal">
        <lane id=":12188226875_4_0" index="0" allow="pedestrian delivery bicycle" speed="5.56" length="24.34" shape="136.48,298.29 141.56,297.37 148.21,295.34 154.82,293.05 159.76,291.34"/>
    </edge>
    <edge id=":12188226875_5" function="internal">
        <lane id=":12188226875_5_0" index="0" allow="pedestrian delivery bicycle" speed="5.56" length="24.84" shape="136.48,298.29 161.32,297.94"/>
    </edge>
    <edge id=":12188226876_0" function="internal">
        <lane id=":12188226876_0_0" index="0" allow="pedestrian delivery bicycle" speed="4.79" length="5.38" shape="199.86,285.49 199.60,283.97 198.92,283.04 197.82,282.70 196.30,282.96"/>
    </edge>
    <edge id=":12188226876_1" function="internal">
        <lane id=":12188226876_1_0" index="0" allow="pedestrian delivery bicycle" speed="5.56" length="9.67" shape="199.86,285.49 199.62,275.82"/>
    </edge>
    <edge id=":12188226876_2" function="internal">
        <lane id=":12188226876_2_0" index="0" allow="pedestrian delivery bicycle" speed="5.56" length="9.67" shape="202.81,275.74 203.05,285.41"/>
    </edge>
    <edge id=":12188226876_3" function="internal">
        <lane id=":12188226876_3_0" index="0" allow="pedestrian delivery bicycle" speed="5.56" length="2.82" shape="202.81,275.74 202.46,278.10 202.23,278.47"/>
    </edge>
    <edge id=":12188226876_6" function="internal">
        <lane id=":12188226876_6_0" index="0" allow="pedestrian delivery bicycle" speed="5.56" length="7.67" shape="202.23,278.47 201.25,280.09 199.20,281.71 196.30,282.96"/>
    </edge>
    <edge id=":12188226876_4" function="internal">
        <lane id=":12188226876_4_0" index="0" allow="pedestrian delivery bicycle" speed="5.56" length="6.36" shape="195.32,279.92 197.23,279.13 198.58,278.19 199.37,277.09 199.62,275.82"/>
    </edge>
    <edge id=":12188226876_5" function="internal">
        <lane id=":12188226876_5_0" index="0" allow="pedestrian delivery bicycle" speed="5.56" length="11.71" shape="195.32,279.92 198.63,279.35 201.02,280.08 202.50,282.10 203.05,285.41"/>
    </edge>
    <edge id=":12803579437_0" function="internal">
        <lane id=":12803579437_0_0" index="0" disallow="tram rail_urban rail rail_electric rail_fast ship" speed="5.71" length="6.72" shape="341.88,317.10 340.88,317.68 340.35,318.87 340.26,320.68 340.63,323.10"/>