<?xml version="1.0" encoding="UTF-8"?>

<!-- generated on 2025-12-26 23:17:23 by Eclipse SUMO duarouter Version 1.18.0
<configuration xmlns:xsi="http://www.w3.org/2001/XMLSchema-instance" xsi:noNamespaceSchemaLocation="http://sumo.dlr.de/xsd/duarouterConfiguration.xsd">

    <input>
        <net-file value="app/sumo/network/silk_board.net.xml"/>
        <route-files value="app/sumo/network/trips_silk_board.xml"/>
    </input>

    <output>
        <output-file value="app/sumo/network/routes_silk_board.rou.xml"/>
    </output>

    <report>
        <no-warnings value="true"/>
        <ignore-errors value="true"/>
    </report>

</configuration>
-->

<routes>
    <vType id="car" vClass="passenger" guiShape="passenger/sedan" color="1,1,0" accel="2.6" decel="4.5" length="5.0"/> xmlns:xsi="http://www.w3.org/2001/XMLSchema-instance" xsi:noNamespaceSchemaLocation="http://sumo.dlr.de/xsd/routes_file.xsd">
    <vType id="passenger" vClass="passenger"/>
    <vehicle id="0" type="passenger" depart="0.00">
        <route edges="27994446#0 27994446#1 27994446#2 27994446#3 27994446#4 27994428#1 1185209421#0 1185209421#2 -40696199#0 -1185209422#2 -1185209422#1"/>
    </vehicle>
    <vehicle id="1" type="passenger" depart="0.60">
        <route edges="-40696197 27994464#1 27994464#2 27994464#3 1185209421#0 1185209421#2 -40696199#0"/>
    </vehicle>
    <vehicle id="2" type="passenger" depart="1.20">
        <route edges="27994464#3 1185209421#0 1185209421#2 40696199#1"/>
    </vehicle>
    <vehicle id="6" type="passenger" depart="3.60">
        <route edges="-1185209422#1 -1185209422#0 -27994464#3"/>
    </vehicle>
    <vehicle id="8" type="passenger" depart="4.80">
        <route edges="-27994446#2 -40696220#1"/>
    </vehicle>
    <vehicle id="9" type="passenger" depart="5.40">
        <route edges="491889865#0 491889865#1 491889865#2 491889865#3 27994428#0 27994428#1 1185209422#0"/>
    </vehicle>
    <vehicle id="10" type="passenger" depart="6.00">
        <route edges="491889865#0 491889865#1 491889865#2 491889865#3 27994428#0 27994428#1 1185209421#0 1185209421#2 40696199#1"/>
    </vehicle>
    <vehicle id="13" type="passenger" depart="7.80">
        <route edges="-27994446#1 -27994446#0"/>
    </vehicle>
    <vehicle id="14" type="passenger" depart="8.40">
        <route edges="491889865#1 491889865#2 491889865#3 27994428#0 -27994446#4 -27994446#3"/>
    </vehicle>
    <vehicle id="15" type="passenger" depart="9.00">
        <route edges="491889865#0 491889865#1 491889865#2 491889865#3 1103401541#0 464465162#1"/>
    </vehicle>
    <vehicle id="18" type="passenger" depart="10.80">
        <route edges="491889865#0 40696220#0 40696220#1 27994446#2 28103470 27994464#2"/>
    </vehicle>
    <vehicle id="19" type="passenger" depart="11.40">
        <route edges="491889865#3 27994428#0"/>
    </vehicle>
    <vehicle id="20" type="passenger" depart="12.00">
        <route edges="27994464#0 27994464#1 27994464#2 27994464#3 -27994428#1"/>
    </vehicle>
    <vehicle id="22" type="passenger" depart="13.20">
        <route edges="-1185209422#3 -1185209422#2 -1185209422#1 -1185209422#0 1185209421#0 -40696205#1"/>
    </vehicle>
    <vehicle id="24" type="passenger" depart="14.40">
        <route edges="27994446#0 27994446#1 27994446#2 28103470 27994464#2 27994464#3 1185209422#0 1185209422#1 1185209422#2 1185209422#3"/>
    </vehicle>
    <vehicle id="25" type="passenger" depart="15.00">
        <route edges="-688608667 40696205#0 40696205#1 -1185209421#0 -27994464#3 -28103471"/>
    </vehicle>
    <vehicle id="26" type="passenger" depart="15.60">
        <route edges="-28103471 27994446#4 27994428#1 1185209421#0 -40696205#1 -40696205#0 688608667"/>
    </vehicle>
    <vehicle id="27" type="passenger" depart="16.20">
        <route edges="27994446#1 27994446#2 27994446#3 27994446#4"/>
    </vehicle>
    <vehicle id="32" type="passenger" depart="19.20">
        <route edges="491889865#0 491889865#1 491889865#2 491889865#3 1103401541#0 464465162#1"/>
    </vehicle>
    <vehicle id="33" type="passenger" depart="19.80">
        <route edges="-27994446#2 -40696220#1 -40696220#0 491889865#1 491889865#2 491889865#3 27994428#0 27994428#1 1185209421#0 1185209421#2 -40696199#0 -1185209422#2"/>
    </vehicle>
    <vehicle id="37" type="passenger" depart="22.20">
        <route edges="27994446#3 27994446#4 27994428#1 1185209422#0 1185209422#1 1185209422#2 1185209422#3"/>
    </vehicle>
    <vehicle id="39" type="passenger" depart="23.40">
        <route edges="-28103470 -27994446#2 -40696220#1"/>
    </vehicle>
    <vehicle id="41" type="passenger" depart="24.60">
        <route edges="27994446#4 -27994428#0 1301808820 1299932382 519734960"/>
    </vehicle>
    <vehicle id="42" type="passenger" depart="25.20">
        <route edges="-688608667 40696205#0 40696205#1 -1185209421#0 -27994428#1 -27994446#4 -27994446#3 -27994446#2 -27994446#1 -1185467340 -40696197"/>
    </vehicle>
    <vehicle id="43" type="passenger" depart="25.80">
        <route edges="886153775#0 1351994265#0 1326496636 243553545#1-AddedOnRampEdge"/>
    </vehicle>
    <vehicle id="44" type="passenger" depart="26.40">
        <route edges="-1185467340 -40696197 27994464#1 27994464#2 27994464#3 -27994428#1"/>
    </vehicle>
    <vehicle id="45" type="passenger" depart="27.00">
        <route edges="-1424147361 40696205#0 40696205#1 -1185209421#0 -27994428#1 -27994446#4 -27994446#3 28103470"/>
    </vehicle>
    <vehicle id="46" type="passenger" depart="27.60">
        <route edges="491889865#0 491889865#1 491889865#2 491889865#3 1301808820"/>
    </vehicle>
    <vehicle id="47" type="passenger" depart="28.20">
        <route edges="-1185209422#3 -1185209422#2 -1185209422#1 -1185209422#0 1185209421#0 1185209421#2 -40696199#0 1185209422#3"/>
    </vehicle>
    <vehicle id="48" type="passenger" depart="28.80">
        <route edges="886153775#0 1351994265#0 1351994265#1 886153774 243553548"/>
    </vehicle>
    <vehicle id="52" type="passenger" depart="31.20">
        <route edges="-28103471 -27994446#3 28103470 -27994464#1 40696197"/>
    </vehicle>
    <vehicle id="56" type="passenger" depart="33.60">
        <route edges="1185209421#2 -40696199#0 -1185209422#2 -1185209422#1 -1185209422#0 -27994464#3 -27994464#2 -27994464#1 -27994464#0"/>
    </vehicle>
    <vehicle id="58" type="passenger" depart="34.80">
        <route edges="-40696199#1 -1185209421#2 -1185209421#0 -27994464#3 -27994464#2 -27994464#1 40696197"/>
    </vehicle>
    <vehicle id="59" type="passenger" depart="35.40">
        <route edges="27994446#0 27994446#1 27994446#2 28103470 -27994464#1 -27994464#0"/>
    </vehicle>
    <vehicle id="62" type="passenger" depart="37.20">
        <route edges="-1110221362 40696220#1 27994446#2 27994446#3 27994446#4 27994428#1 1185209421#0"/>
    </vehicle>
    <vehicle id="63" type="passenger" depart="37.80">
        <route edges="-1185209422#0 1185209421#0 -40696205#1 -40696205#0 688608667"/>
    </vehicle>
    <vehicle id="64" type="passenger" depart="38.40">
        <route edges="49989519 886153775#0 1351994265#0 1351994265#1 491889864#1 491889864#2"/>
    </vehicle>
    <vehicle id="65" type="passenger" depart="39.00">
        <route edges="-40696199#1 -1185209421#2 -1185209421#0 -27994428#1 -27994446#4 -27994446#3 -27994446#2 -27994446#1 -27994446#0"/>
    </vehicle>
    <vehicle id="67" type="passenger" depart="40.20">
        <route edges="-1185209422#3 -1185209422#2 -1185209422#1 -1185209422#0 1185209421#0 -40696205#1 -40696205#0 1424147361"/>
    </vehicle>
    <vehicle id="68" type="passenger" depart="40.80">
        <route edges="-1185209422#3 -1185209422#2 -1185209422#1 -1185209422#0 -27994428#1 -27994428#0 1103401541#0 464465162#1"/>
    </vehicle>
    <vehicle id="69" type="passenger" depart="41.40">
        <route edges="40696205#0 40696205#1 -1185209421#0 -27994428#1 -27994446#4"/>
    </vehicle>
    <vehicle id="70" type="passenger" depart="42.00">
        <route edges="1108993653 1351994265#0 1351994265#1 886153774 243553548"/>
    </vehicle>
    <vehicle id="71" type="passenger" depart="42.60">
        <route edges="-28103470 27994446#3 27994446#4 -27994428#0 1301808820 1299932382 519734960"/>
    </vehicle>
    <vehicle id="76" type="passenger" depart="45.60">
        <route edges="1108993653 1351994265#0 1351994265#1 886153774 243553545#2"/>
    </vehicle>
    <vehicle id="77" type="passenger" depart="46.20">
        <route edges="-1424147361 40696205#0 40696205#1 1185209421#2 -40696199#0"/>
    </vehicle>
    <vehicle id="78" type="passenger" depart="46.80">
        <route edges="-40696199#1 -1185209421#2 -1185209421#0 -27994428#1 -27994446#4 -27994446#3 -27994446#2 -40696220#1"/>
    </vehicle>
    <vehicle id="79" type="passenger" depart="47.40">
        <route edges="-27994446#2 -27994446#1 -1185467340 -40696197"/>
    </vehicle>
    <vehicle id="80" type="passenger" depart="48.00">
        <route edges="-1185209422#3 -1185209422#2 -1185209422#1 -1185209422#0 -27994464#3 -28103471 -27994446#3 28103470"/>
    </vehicle>
    <vehicle id="81" type="passenger" depart="48.60">
        <route edges="-27994446#2 -40696220#1 -40696220#0 491889865#1 491889865#2 491889865#3 1301808820 1299932382 519734960"/>
    </vehicle>
    <vehicle id="82" type="passenger" depart="49.20">
        <route edges="491889865#3 27994428#0 -27994446#4 -27994446#3 -27994446#2 -27994446#1 -27994446#0"/>
    </vehicle>
    <vehicle id="83" type="passenger" depart="49.80">
        <route edges="-27994446#4 28103471 27994464#3 1185209421#0 1185209421#2 40696199#1"/>
    </vehicle>
    <vehicle id="87" type="passenger" depart="52.20">
        <route edges="491889865#0 40696220#0 40696220#1 27994446#2 28103470 -27994464#1"/>
    </vehicle>
    <vehicle id="90" type="passenger" depart="54.00">
        <route edges="27994464#2 27994464#3 1185209421#0 1185209421#2 40696199#1"/>
    </vehicle>
    <vehicle id="92" type="passenger" depart="55.20">
        <route edges="-688608667 40696205#0 40696205#1 -1185209421#0 1185209422#0 1185209422#1"/>
    </vehicle>
    <vehicle id="96" type="passenger" depart="57.60">
        <route edges="-27994464#2 -28103470 27994446#3 27994446#4 -27994428#0 1301808820 1299932382 519734960"/>
    </vehicle>
    <vehicle id="99" type="passenger" depart="59.40">
        <route edges="886153775#0 1351994265#0 1351994265#1 491889864#1 491889864#2"/>
    </vehicle>
    <vehicle id="100" type="passenger" depart="60.00">
        <route edges="886153772 519734960"/>
    </vehicle>
    <vehicle id="101" type="passenger" depart="60.60">
        <route edges="491889865#1 491889865#2 491889865#3 27994428#0 27994428#1 -27994464#3 -27994464#2 -27994464#1 -27994464#0"/>
    </vehicle>
    <vehicle id="103" type="passenger" depart="61.80">
        <route edges="-688608667 40696205#0 40696205#1 -1185209421#0 -27994428#1 -27994446#4 -27994446#3 -27994446#2 -27994446#1 -27994446#0"/>
    </vehicle>
    <vehicle id="104" type="passenger" depart="62.40">
        <route edges="-688608667 40696205#0 40696205#1 -1185209421#0 -27994428#1 -27994446#4 -27994446#3 -27994446#2 -40696220#1 694335187"/>
    </vehicle>
    <vehicle id="105" type="passenger" depart="63.00">
        <route edges="-28103470 27994446#3 27994446#4 -27994428#0 1103401541#0 464465162#1"/>
    </vehicle>
    <vehicle id="112" type="passenger" depart="67.20">
        <route edges="-1185209422#3 -1185209422#2 -1185209422#1 -1185209422#0 -27994464#3"/>
    </vehicle>
    <vehicle id="113" type="passenger" depart="67.80">
        <route edges="-1185209421#0 -27994428#1 -27994446#4 -27994446#3 -27994446#2 -40696220#1 -40696220#0 491889865#1"/>
    </vehicle>
    <vehicle id="115" type="passenger" depart="69.00">
        <route edges="-1185209422#3 -1185209422#2 -1185209422#1 -1185209422#0 -27994464#3 -27994464#2 -27994464#1 -27994464#0"/>
    </vehicle>
    <vehicle id="116" type="passenger" depart="69.60">
        <route edges="27994446#0 27994446#1 27994446#2 27994446#3 27994446#4 27994428#1 1185209421#0 1185209421#2 40696199#1"/>
    </vehicle>
    <vehicle id="117" type="passenger" depart="70.20">
        <route edges="-27994446#3"/>
    </vehicle>
    <vehicle id="119" type="passenger" depart="71.40">
        <route edges="27994446#0 27994446#1 27994446#2 28103470 27994464#2"/>
    </vehicle>
    <vehicle id="121" type="passenger" depart="72.60">
        <route edges="1185467340 27994446#1 27994446#2 27994446#3 27994446#4 27994428#1 1185209421#0 -40696205#1 -40696205#0 688608667"/>
    </vehicle>
    <vehicle id="123" type="passenger" depart="73.80">
        <route edges="-27994446#4 28103471 27994464#3 1185209422#0 1185209422#1 1185209422#2 1185209422#3"/>
    </vehicle>
    <vehicle id="125" type="passenger" depart="75.00">
        <route edges="-40696199#1 -1185209421#2 -1185209421#0 -27994428#1 -27994428#0 1103401541#0 464465162#1"/>
    </vehicle>
    <vehicle id="126" type="passenger" depart="75.60">
        <route edges="-1185209422#3 -1185209422#2 -1185209422#1 -1185209422#0 1185209421#0 -40696205#1 -40696205#0 1424147361"/>
    </vehicle>
    <vehicle id="127" type="passenger" depart="76.20">
        <route edges="886153775#0"/>
    </vehicle>
    <vehicle id="128" type="passenger" depart="76.80">
        <route edges="-1185209422#3 -1185209422#2 -1185209422#1 -1185209422#0 -27994464#3 -28103471"/>
    </vehicle>
    <vehicle id="129" type="passenger" depart="77.40">
        <route edges="-28103470 27994446#3 27994446#4 27994428#1 1185209421#0 -40696205#1 -40696205#0 688608667"/>
    </vehicle>
    <vehicle id="131" type="passenger" depart="78.60">
        <route edges="-688608667 40696205#0 40696205#1 -1185209421#0 -27994464#3 -27994464#2 -27994464#1 -27994464#0"/>
    </vehicle>
    <vehicle id="132" type="passenger" depart="79.20">
        <route edges="491889865#0 491889865#1 491889865#2 491889865#3 27994428#0 27994428#1 1185209421#0 1185209421#2 40696199#1"/>
    </vehicle>
    <vehicle id="133" type="passenger" depart="79.80">
        <route edges="27994446#0 27994446#1"/>
    </vehicle>
    <vehicle id="134" type="passenger" depart="80.40">
        <route edges="27994446#2 28103470 27994464#2 27994464#3 1185209422#0"/>
    </vehicle>
    <vehicle id="136" type="passenger" depart="81.60">
        <route edges="27994446#4 27994428#1 1185209421#0 -40696205#1 -40696205#0 688608667"/>
    </vehicle>
    <vehicle id="137" type="passenger" depart="82.20">
        <route edges="-1424147361 40696205#0 40696205#1 -1185209421#0 -27994428#1 -27994446#4 -27994446#3 -27994446#2"/>
    </vehicle>
    <vehicle id="139" type="passenger" depart="83.40">
        <route edges="-40696197 27994464#1 27994464#2 -28103471 27994446#4"/>
    </vehicle>
    <vehicle id="140" type="passenger" depart="84.00">
        <route edges="27994464#0 27994464#1 -28103470"/>
    </vehicle>
    <vehicle id="143" type="passenger" depart="85.80">
        <route edges="491889865#0 40696220#0 40696220#1 -27994446#1 -27994446#0"/>
    </vehicle>
    <vehicle id="145" type="passenger" depart="87.00">
        <route edges="-1110221362 -40696220#0 491889865#1 491889865#2 491889865#3 1103401541#0 464465162#1"/>
    </vehicle>
    <vehicle id="149" type="passenger" depart="89.40">
        <route edges="-1185209422#3 -1185209422#2 -1185209422#1 -1185209422#0 -27994428#1 -27994428#0 1301808820 1299932382 519734960"/>
    </vehicle>
    <vehicle id="150" type="passenger" depart="90.00">
        <route edges="49989519 886153775#0 1351994265#0 1351994265#1 886153774 243553548"/>
    </vehicle>
    <vehicle id="151" type="passenger" depart="90.60">
        <route edges="491889865#0 491889865#1 491889865#2 491889865#3 27994428#0 27994428#1"/>
    </vehicle>
    <vehicle id="152" type="passenger" depart="91.20">
        <route edges="-1424147361 40696205#0 40696205#1 -1185209421#0 -27994428#1 -27994446#4"/>
    </vehicle>
    <vehicle id="153" type="passenger" depart="91.80">
        <route edges="-40696199#1 -1185209421#2 -1185209421#0 -27994428#1 -27994428#0 1301808820 1299932382 519734960"/>
    </vehicle>
    <vehicle id="154" type="passenger" depart="92.40">
        <route edges="491889865#0 491889865#1 491889865#2 491889865#3"/>
    </vehicle>
    <vehicle id="156" type="passenger" depart="93.60">
        <route edges="-27994464#2 -28103470 -27994446#2 -27994446#1 -27994446#0"/>
    </vehicle>
    <vehicle id="157" type="passenger" depart="94.20">
        <route edges="40696220#1 27994446#2 27994446#3 27994446#4 -27994428#0 1301808820 1299932382 519734960"/>
    </vehicle>
    <vehicle id="158" type="passenger" depart="94.80">
        <route edges="-688608667 40696205#0 40696205#1 -1185209421#0 -27994428#1 -27994446#4 -27994446#3 28103470 27994464#2"/>
    </vehicle>
    <vehicle id="161" type="passenger" depart="96.60">
        <route edges="491889865#0 491889865#1 491889865#2 491889865#3 1301808820 1299932382 519734960"/>
    </vehicle>
    <vehicle id="162" type="passenger" depart="97.20">
        <route edges="-1185209422#1 -1185209422#0 -27994428#1 -27994428#0 1103401541#0 464465162#1"/>
    </vehicle>
    <vehicle id="163" type="passenger" depart="97.80">
        <route edges="-40696199#1 -1185209421#2 -40696205#1 -40696205#0 688608667"/>
    </vehicle>
    <vehicle id="164" type="passenger" depart="98.40">
        <route edges="491889865#0 491889865#1 491889865#2 491889865#3"/>
    </vehicle>
    <vehicle id="169" type="passenger" depart="101.40">
        <route edges="1108993653 1351994265#0 1326496636 243553545#1-AddedOnRampEdge 243553545#1 -886153774"/>
    </vehicle>
    <vehicle id="170" type="passenger" depart="102.00">
        <route edges="491889865#0 491889865#1 491889865#2 491889865#3 27994428#0 27994428#1 1185209421#0 -40696205#1 -40696205#0"/>
    </vehicle>
    <vehicle id="171" type="passenger" depart="102.60">
        <route edges="-1185209422#1 -1185209422#0 -27994464#3 -27994464#2"/>
    </vehicle>
    <vehicle id="172" type="passenger" depart="103.20">
        <route edges="-40696199#1 -1185209421#2 -1185209421#0 -27994428#1 -27994446#4 -27994446#3 -27994446#2 -40696220#1 -40696220#0 491889865#1 491889865#2 491889865#3"/>
    </vehicle>
    <vehicle id="174" type="passenger" depart="104.40">
        <route edges="27994446#0 27994446#1 27994446#2 28103470 27994464#2 27994464#3 1185209422#0 1185209422#1 1185209422#2 1185209422#3"/>
    </vehicle>
    <vehicle id="182" type="passenger" depart="109.20">
        <route edges="-688608667 40696205#0 40696205#1 -1185209421#0 -27994428#1 -27994446#4"/>
    </vehicle>
    <vehicle id="184" type="passenger" depart="110.40">
        <route edges="-1110221362 -40696220#0 491889865#1 491889865#2 491889865#3 1301808820 1299932382 519734960"/>
    </vehicle>
    <vehicle id="186" type="passenger" depart="111.60">
        <route edges="28103470 27994464#2 27994464#3 1185209421#0 1185209421#2 40696199#1"/>
    </vehicle>
    <vehicle id="187" type="passenger" depart="112.20">
        <route edges="-688608667 40696205#0 40696205#1 -1185209421#0 -27994428#1 -27994446#4 -27994446#3 -27994446#2 -27994446#1 -27994446#0"/>
    </vehicle>
    <vehicle id="188" type="passenger" depart="112.80">
        <route edges="27994446#4 27994428#1 1185209421#0 1185209421#2"/>
    </vehicle>
    <vehicle id="189" type="passenger" depart="113.40">
        <route edges="-40696199#1 -1185209421#2 -1185209421#0 -27994428#1 -27994446#4 -27994446#3 -27994446#2 -40696220#1 -40696220#0 491889865#1"/>
    </vehicle>
    <vehicle id="191" type="passenger" depart="114.60">
        <route edges="-40696199#1 -1185209421#2 -1185209421#0 -27994464#3 -27994464#2 -27994464#1 40696197 1185467340"/>
    </vehicle>
    <vehicle id="193" type="passenger" depart="115.80">
        <route edges="-1424147361 40696205#0 40696205#1 -1185209421#0 -27994428#1 -27994428#0 1301808820"/>
    </vehicle>
    <vehicle id="199" type="passenger" depart="119.40">
        <route edges="27994446#2 27994446#3 27994446#4 27994428#1 1185209421#0 -40696205#1 -40696205#0 1424147361"/>
    </vehicle>
    <vehicle id="202" type="passenger" depart="121.20">
        <route edges="491889865#0 40696220#0 40696220#1 27994446#2 28103470 -27994464#1 -27994464#0"/>
    </vehicle>
    <vehicle id="204" type="passenger" depart="122.40">
        <route edges="27994446#0 27994446#1 27994446#2 28103470 27994464#2 27994464#3 1185209422#0"/>
    </vehicle>
    <vehicle id="205" type="passenger" depart="123.00">
        <route edges="491889865#0 491889865#1 491889865#2 491889865#3 1103401541#0 464465162#1"/>
    </vehicle>
    <vehicle id="206" type="passenger" depart="123.60">
        <route edges="27994464#0 27994464#1 27994464#2 27994464#3 1185209421#0 1185209421#2 -40696199#0"/>
    </vehicle>
    <vehicle id="208" type="passenger" depart="124.80">
        <route edges="-27994464#1 40696197 1185467340 27994446#1 27994446#2 27994446#3 27994446#4 27994428#1 1185209421#0 -40696205#1 -40696205#0 1424147361"/>
    </vehicle>
    <vehicle id="209" type="passenger" depart="125.40">
        <route edges="491889865#1 491889865#2 491889865#3 27994428#0 -27994446#4 -27994446#3 -27994446#2 -27994446#1 -27994446#0"/>
    </vehicle>
    <vehicle id="210" type="passenger" depart="126.00">
        <route edges="-688608667 40696205#0 40696205#1 -1185209421#0 -27994428#1 -27994446#4 -27994446#3 28103470"/>
    </vehicle>
    <vehicle id="212" type="passenger" depart="127.20">
        <route edges="-1185209422#0 -27994464#3 -27994464#2 -28103470 -27994446#2 -40696220#1"/>
    </vehicle>
    <vehicle id="213" type="passenger" depart="127.80">
        <route edges="-28103470 -27994446#2 -27994446#1 -1110221362"/>
    </vehicle>
    <vehicle id="214" type="passenger" depart="128.40">
        <route edges="28103471 27994464#3 -27994428#1 -27994428#0 1103401541#0 464465162#1"/>
    </vehicle>
    <vehicle id="217" type="passenger" depart="130.20">
        <route edges="1185209422#2 40696199#0 -1185209421#2 -1185209421#0 -27994428#1"/>
    </vehicle>
    <vehicle id="218" type="passenger" depart="130.80">
        <route edges="-27994464#2 -28103470 -27994446#2 -40696220#1 -40696220#0 491889865#1"/>
    </vehicle>
    <vehicle id="219" type="passenger" depart="131.40">
        <route edges="1108993653 1351994265#0 1351994265#1 491889864#1 491889864#2"/>
    </vehicle>
    <vehicle id="220" type="passenger" depart="132.00">
        <route edges="27994464#0 27994464#1 -28103470 -27994446#2 -40696220#1 694335187"/>
    </vehicle>
    <vehicle id="221" type="passenger" depart="132.60">
        <route edges="27994446#0 27994446#1 27994446#2 27994446#3 27994446#4 27994428#1 1185209421#0 -40696205#1 -40696205#0 688608667"/>
    </vehicle>
    <vehicle id="226" type="passenger" depart="135.60">
        <route edges="1108993653 -886153775#1 -49989519"/>
    </vehicle>
    <vehicle id="227" type="passenger" depart="136.20">
        <route edges="-27994464#1 40696197 1185467340 27994446#1 27994446#2 27994446#3 28103471"/>
    </vehicle>
    <vehicle id="231" type="passenger" depart="138.60">
        <route edges="-40696197 27994464#1 27994464#2 27994464#3 -27994428#1 -27994428#0 1103401541#0"/>
    </vehicle>
    <vehicle id="233" type="passenger" depart="139.80">
        <route edges="-27994446#2 -40696220#1 -40696220#0 491889865#1 491889865#2 491889865#3 27994428#0 27994428#1 1185209421#0 1185209421#2 40696199#1"/>
    </vehicle>
    <vehicle id="234" type="passenger" depart="140.40">
        <route edges="27994464#0 27994464#1 -28103470 -27994446#2 -27994446#1 -27994446#0"/>
    </vehicle>
    <vehicle id="236" type="passenger" depart="141.60">
        <route edges="-688608667 40696205#0 40696205#1 -1185209421#0 -27994464#3 -27994464#2 -28103470"/>
    </vehicle>
    <vehicle id="238" type="passenger" depart="142.80">
        <route edges="27994428#1 1185209421#0 1185209421#2 40696199#1"/>
    </vehicle>
    <vehicle id="239" type="passenger" depart="143.40">
        <route edges="491889865#2 491889865#3 1103401541#0 464465162#1"/>
    </vehicle>
    <vehicle id="240" type="passenger" depart="144.00">
        <route edges="-688608667 40696205#0 40696205#1 -1185209421#0"/>
    </vehicle>
    <vehicle id="241" type="passenger" depart="144.60">
        <route edges="-40696220#0 491889865#1 491889865#2 491889865#3 1103401541#0 464465162#1"/>
    </vehicle>
    <vehicle id="242" type="passenger" depart="145.20">
        <route edges="491889865#2 491889865#3 27994428#0 27994428#1 1185209421#0 -40696205#1 -40696205#0 688608667"/>
    </vehicle>
    <vehicle id="245" type="passenger" depart="147.00">
        <route edges="-27994446#1 -1185467340 -40696197"/>
    </vehicle>
    <vehicle id="247" type="passenger" depart="148.20">
        <route edges="-40696199#1 -40696199#0 -1185209422#2 -1185209422#1 -1185209422#0 1185209421#0 1185209421#2 40696199#1"/>
    </vehicle>
    <vehicle id="248" type="passenger" depart="148.80">
        <route edges="-688608667 40696205#0 40696205#1 -1185209421#0 -27994464#3 -27994464#2 -27994464#1 -27994464#0"/>
    </vehicle>
    <vehicle id="250" type="passenger" depart="150.00">
        <route edges="27994446#0 27994446#1 27994446#2 27994446#3 27994446#4 27994428#1 1185209421#0 1185209421#2 -40696199#0 -1185209422#2 -1185209422#1"/>
    </vehicle>
    <vehicle id="252" type="passenger" depart="151.20">
        <route edges="-1185209422#1 -1185209422#0 -27994464#3 -27994464#2 -27994464#1 40696197"/>
    </vehicle>
    <vehicle id="253" type="passenger" depart="151.80">
        <route edges="-1424147361 40696205#0 40696205#1 1185209421#2 -40696199#0 -1185209422#2 -1185209422#1 -1185209422#0 1185209421#0 -40696205#1 -40696205#0 1424147361"/>
    </vehicle>
    <vehicle id="254" type="passenger" depart="152.40">
        <route edges="-1185209422#3 -1185209422#2 -1185209422#1 -1185209422#0 1185209421#0 1185209421#2 -40696199#0 1185209422#3"/>
    </vehicle>
    <vehicle id="256" type="passenger" depart="153.60">
        <route edges="1185209422#2 1185209422#3"/>
    </vehicle>
    <vehicle id="258" type="passenger" depart="154.80">
        <route edges="-27994464#2 -28103470 -27994446#2 -27994446#1 -27994446#0"/>
    </vehicle>
    <vehicle id="261" type="passenger" depart="156.60">
        <route edges="27994446#2 27994446#3 27994446#4 -27994428#0 1103401541#0 464465162#1"/>
    </vehicle>
    <vehicle id="262" type="passenger" depart="157.20">
        <route edges="27994446#2 27994446#3 27994446#4 -27994428#0 1103401541#0 464465162#1"/>
    </vehicle>
    <vehicle id="264" type="passenger" depart="158.40">
        <route edges="-1185209422#0 -27994464#3 -27994464#2 -27994464#1 -27994464#0"/>
    </vehicle>
    <vehicle id="265" type="passenger" depart="159.00">
        <route edges="-1424147361 40696205#0 40696205#1 1185209421#2 40696199#1"/>
    </vehicle>
    <vehicle id="267" type="passenger" depart="160.20">
        <route edges="27994464#0 27994464#1 27994464#2 27994464#3 -27994428#1 -27994428#0 1103401541#0 464465162#1"/>
    </vehicle>
    <vehicle id="269" type="passenger" depart="161.40">
        <route edges="28103471 -27994464#2 -28103470 -27994446#2"/>
    </vehicle>
    <vehicle id="270" type="passenger" depart="162.00">
        <route edges="491889865#0 491889865#1 491889865#2 491889865#3 27994428#0 27994428#1 1185209421#0 -40696205#1 -40696205#0 688608667"/>
    </vehicle>
    <vehicle id="271" type="passenger" depart="162.60">
        <route edges="-1424147361 40696205#0 40696205#1 1185209421#2 -40696199#0 -1185209422#2 -1185209422#1"/>
    </vehicle>
    <vehicle id="272" type="passenger" depart="163.20">
        <route edges="-40696199#1 -40696199#0 -1185209422#2 -1185209422#1 -1185209422#0 1185209421#0 1185209421#2 40696199#1"/>
    </vehicle>
    <vehicle id="274" type="passenger" depart="164.40">
        <route edges="27994464#0 27994464#1 -28103470 -27994446#2 -27994446#1 -27994446#0"/>
    </vehicle>
    <vehicle id="275" type="passenger" depart="165.00">
        <route edges="27994464#0 27994464#1 27994464#2"/>
    </vehicle>
    <vehicle id="276" type="passenger" depart="165.60">
        <route edges="-1424147361 40696205#0 40696205#1 -1185209421#0 -27994428#1 -27994428#0 1103401541#0 464465162#1"/>
    </vehicle>
    <vehicle id="277" type="passenger" depart="166.20">
        <route edges="491889865#1 491889865#2 491889865#3 27994428#0 -27994446#4 -27994446#3"/>
    </vehicle>
    <vehicle id="278" type="passenger" depart="166.80">
        <route edges="-1424147361 40696205#0 40696205#1 -1185209421#0 -27994428#1 -27994446#4 -27994446#3 -27994446#2 -40696220#1 694335187"/>
    </vehicle>
    <vehicle id="279" type="passenger" depart="167.40">
        <route edges="40696220#1 27994446#2 28103470 27994464#2 27994464#3 1185209422#0 1185209422#1 1185209422#2"/>
    </vehicle>
    <vehicle id="281" type="passenger" depart="168.60">
        <route edges="1185209422#0 1185209422#1"/>
    </vehicle>
    <vehicle id="283" type="passenger" depart="169.80">
        <route edges="-1424147361 688608667"/>
    </vehicle>
    <vehicle id="286" type="passenger" depart="171.60">
        <route edges="27994464#2 27994464#3 1185209421#0 -40696205#1 -40696205#0 688608667"/>
    </vehicle>
    <vehicle id="290" type="passenger" depart="174.00">
        <route edges="-28103471 -27994446#3 -27994446#2 -40696220#1 -40696220#0 491889865#1"/>
    </vehicle>
    <vehicle id="291" type="passenger" depart="174.60">
        <route edges="491889865#0 40696220#0 40696220#1 -27994446#1 -27994446#0"/>
    </vehicle>
    <vehicle id="294" type="passenger" depart="176.40">
        <route edges="-688608667 40696205#0 40696205#1 1185209421#2 -40696199#0 -1185209422#2"/>
    </vehicle>
    <vehicle id="295" type="passenger" depart="177.00">
        <route edges="491889865#1 491889865#2 491889865#3 27994428#0 27994428#1 -27994464#3 -27994464#2 -27994464#1 -27994464#0"/>
    </vehicle>
    <vehicle id="299" type="passenger" depart="179.40">
        <route edges="-1185209421#2 -40696205#1 -40696205#0 688608667"/>