<?xml version="1.0" encoding="UTF-8"?>
<routes xmlns:xsi="http://www.w3.org/2001/XMLSchema-instance" xsi:noNamespaceSchemaLocation="http://sumo.dlr.de/xsd/routes_file.xsd">

    <!-- Vehicle Types -->
    <vType id="car" accel="2.6" decel="4.5" sigma="0.5" length="4.5" maxSpeed="50" guiShape="passenger"/>
    <vType id="motorcycle" accel="4.0" decel="6.0" sigma="0.5" length="2.0" maxSpeed="60" guiShape="motorcycle"/>
    <vType id="bus" accel="1.2" decel="3.0" sigma="0.5" length="12.0" maxSpeed="30" guiShape="bus"/>
    <vType id="truck" accel="1.0" decel="3.0" sigma="0.5" length="10.0" maxSpeed="25" guiShape="truck"/>
    <vType id="emergency" accel="3.0" decel="5.0" sigma="0.3" length="5.5" maxSpeed="60" guiShape="emergency" vClass="emergency" color="1,0,0"/>

    <!-- Vehicle Trips (3800 total) -->
    <trip id="v_s_799" type="car" depart="2.1" from="-1424147361" to="464465162#1" departLane="best" departSpeed="max"/>
    <trip id="v_e_2281" type="car" depart="2.5" from="27994464#0" to="688608667" departLane="best" departSpeed="max"/>
    <trip id="v_s_800" type="car" depart="2.9" from="-1424147361" to="519734960" departLane="best" departSpeed="max"/>
    <trip id="v_w_3041" type="car" depart="3.2" from="-40696199#1" to="688608667" departLane="best" departSpeed="max"/>
    <trip id="v_s_801" type="car" depart="4.2" from="-1424147361" to="464465162#1" departLane="best" departSpeed="max"/>
    <trip id="v_e_2282" type="car" depart="4.4" from="27994464#0" to="-27994446#0" departLane="best" departSpeed="max"/>
    <trip id="v_n_1" type="motorcycle" depart="4.6" from="491889865#0" to="519734960" departLane="best" departSpeed="max"/>
    <trip id="v_n_2" type="car" depart="4.7" from="491889865#0" to="519734960" departLane="best" departSpeed="max"/>
    <trip id="v_w_3042" type="motorcycle" depart="5.1" from="-40696199#1" to="688608667" departLane="best" departSpeed="max"/>
    <trip id="v_s_802" type="car" depart="5.6" from="-1424147361" to="464465162#1" departLane="best" departSpeed="max"/>
    <trip id="v_n_3" type="truck" depart="6.2" from="491889865#0" to="519734960" departLane="best" departSpeed="max"/>
    <trip id="v_e_2283" type="car" depart="6.6" from="27994464#0" to="-27994446#0" departLane="best" departSpeed="max"/>
    <trip id="v_n_4" type="car" depart="7.3" from="491889865#0" to="519734960" departLane="best" departSpeed="max"/>
    <trip id="v_s_803" type="car" depart="8.1" from="-1424147361" to="688608667" departLane="best" departSpeed="max"/>
    <trip id="v_w_3043" type="car" depart="13.1" from="-40696199#1" to="688608667" departLane="best" departSpeed="max"/>
    <trip id="v_s_804" type="car" depart="13.2" from="-1424147361" to="464465162#1" departLane="best" departSpeed="max"/>
    <trip id="v_n_5" type="car" depart="13.3" from="491889865#0" to="519734960" departLane="best" departSpeed="max"/>
    <trip id="v_s_805" type="car" depart="13.4" from="-1424147361" to="464465162#1" departLane="best" departSpeed="max"/>
    <trip id="v_e_2284" type="car" depart="14.9" from="27994464#0" to="-27994446#0" departLane="best" departSpeed="max"/>
    <trip id="v_s_806" type="car" depart="15.2" from="-1424147361" to="464465162#1" departLane="best" departSpeed="max"/>
    <trip id="v_e_2285" type="car" depart="15.6" from="27994464#0" to="-27994446#0" departLane="best" departSpeed="max"/>
    <trip id="v_s_807" type="truck" depart="16.0" from="-1424147361" to="464465162#1" departLane="best" departSpeed="max"/>
    <trip id="v_e_2286" type="car" depart="16.6" from="27994464#0" to="-27994446#0" departLane="best" departSpeed="max"/>
    <trip id="v_n_6" type="car" depart="18.4" from="491889865#0" to="519734960" departLane="best" departSpeed="max"/>
    <trip id="v_w_3044" type="car" depart="19.9" from="-40696199#1" to="464465162#1" departLane="best" departSpeed="max"/>
    <trip id="v_s_808" type="car" depart="22.7" from="-1424147361" to="464465162#1" departLane="best" departSpeed="max"/>
    <trip id="v_e_2287" type="car" depart="23.2" from="27994464#0" to="-27994446#0" departLane="best" departSpeed="max"/>
    <trip id="v_w_3045" type="car" depart="23.3" from="-40696199#1" to="688608667" departLane="best" departSpeed="max"/>
    <trip id="v_s_809" type="car" depart="23.8" from="-1424147361" to="464465162#1" departLane="best" departSpeed="max"/>
    <trip id="v_w_3046" type="bus" depart="25.1" from="-40696199#1" to="688608667" departLane="best" departSpeed="max"/>
    <trip id="v_e_2288" type="motorcycle" depart="27.4" from="27994464#0" to="-27994446#0" departLane="best" departSpeed="max"/>
    <trip id="v_n_7" type="car" depart="28.5" from="491889865#0" to="688608667" departLane="best" departSpeed="max"/>
    <trip id="v_n_8" type="car" depart="28.9" from="491889865#0" to="519734960" departLane="best" departSpeed="max"/>
    <trip id="v_e_2289" type="car" depart="30.6" from="27994464#0" to="-27994446#0" departLane="best" departSpeed="max"/>
    <trip id="v_s_810" type="car" depart="31.1" from="-1424147361" to="464465162#1" departLane="best" departSpeed="max"/>
    <trip id="v_n_9" type="bus" depart="31.3" from="491889865#0" to="519734960" departLane="best" departSpeed="max"/>
    <trip id="v_n_10" type="car" depart="31.5" from="491889865#0" to="519734960" departLane="best" departSpeed="max"/>
    <trip id="v_s_811" type="car" depart="32.1" from="-1424147361" to="464465162#1" departLane="best" departSpeed="max"/>
    <trip id="v_s_812" type="truck" depart="32.1" from="-1424147361" to="464465162#1" departLane="best" departSpeed="max"/>
    <trip id="v_n_11" type="truck" depart="32.6" from="491889865#0" to="519734960" departLane="best" departSpeed="max"/>
    <trip id="v_s_813" type="motorcycle" depart="35.7" from="-1424147361" to="464465162#1" departLane="best" departSpeed="max"/>
    <trip id="v_n_12" type="truck" depart="35.8" from="491889865#0" to="519734960" departLane="best" departSpeed="max"/>
    <trip id="v_n_13" type="car" depart="35.9" from="491889865#0" to="464465162#1" departLane="best" departSpeed="max"/>
    <trip id="v_n_14" type="car" depart="36.9" from="491889865#0" to="519734960" departLane="best" departSpeed="max"/>
    <trip id="v_e_2290" type="car" depart="37.2" from="27994464#0" to="-27994446#0" departLane="best" departSpeed="max"/>
    <trip id="v_w_3047" type="car" depart="38.8" from="-40696199#1" to="464465162#1" departLane="best" departSpeed="max"/>
    <trip id="v_s_814" type="motorcycle" depart="38.9" from="-1424147361" to="464465162#1" departLane="best" departSpeed="max"/>
    <trip id="v_e_2291" type="car" depart="39.5" from="27994464#0" to="-27994446#0" departLane="best" departSpeed="max"/>
    <trip id="v_e_2292" type="truck" depart="40.1" from="27994464#0" to="519734960" departLane="best" departSpeed="max"/>
    <trip id="v_e_2293" type="truck" depart="40.4" from="27994464#0" to="688608667" departLane="best" departSpeed="max"/>
    <trip id="v_n_15" type="car" depart="41.6" from="491889865#0" to="-27994446#0" departLane="best" departSpeed="max"/>
    <trip id="v_s_815" type="motorcycle" depart="42.1" from="-1424147361" to="464465162#1" departLane="best" departSpeed="max"/>
    <trip id="v_e_2294" type="car" depart="43.4" from="27994464#0" to="-27994446#0" departLane="best" departSpeed="max"/>
    <trip id="v_s_816" type="car" depart="43.6" from="-1424147361" to="464465162#1" departLane="best" departSpeed="max"/>
    <trip id="v_w_3048" type="motorcycle" depart="44.6" from="-40696199#1" to="688608667" departLane="best" departSpeed="max"/>
    <trip id="v_n_16" type="car" depart="45.2" from="491889865#0" to="519734960" departLane="best" departSpeed="max"/>
    <trip id="v_e_2295" type="truck" depart="45.9" from="27994464#0" to="-27994446#0" departLane="best" departSpeed="max"/>
    <trip id="v_s_817" type="motorcycle" depart="46.2" from="-1424147361" to="464465162#1" departLane="best" departSpeed="max"/>
    <trip id="v_n_17" type="car" depart="46.3" from="491889865#0" to="688608667" departLane="best" departSpeed="max"/>
    <trip id="v_s_818" type="car" depart="47.3" from="-1424147361" to="464465162#1" departLane="best" departSpeed="max"/>
    <trip id="v_s_819" type="car" depart="47.4" from="-1424147361" to="464465162#1" departLane="best" departSpeed="max"/>
    <trip id="v_e_2296" type="motorcycle" depart="49.0" from="27994464#0" to="-27994446#0" departLane="best" departSpeed="max"/>
    <trip id="v_s_820" type="car" depart="49.3" from="-1424147361" to="464465162#1" departLane="best" departSpeed="max"/>
    <trip id="v_w_3049" type="car" depart="49.7" from="-40696199#1" to="519734960" departLane="best" departSpeed="max"/>
    <trip id="v_s_821" type="car" depart="49.9" from="-1424147361" to="464465162#1" departLane="best" departSpeed="max"/>
    <trip id="v_n_18" type="truck" depart="50.3" from="491889865#0" to="-27994446#0" departLane="best" departSpeed="max"/>
    <trip id="v_s_822" type="car" depart="51.3" from="-1424147361" to="464465162#1" departLane="best" departSpeed="max"/>
    <trip id="v_e_2297" type="motorcycle" depart="51.5" from="27994464#0" to="-27994446#0" departLane="best" departSpeed="max"/>
    <trip id="v_s_823" type="car" depart="51.8" from="-1424147361" to="464465162#1" departLane="best" departSpeed="max"/>
    <trip id="v_s_824" type="car" depart="52.6" from="-1424147361" to="-27994446#0" departLane="best" departSpeed="max"/>
    <trip id="v_e_2298" type="car" depart="52.7" from="27994464#0" to="464465162#1" departLane="best" departSpeed="max"/>
    <trip id="v_s_825" type="car" depart="56.9" from="-1424147361" to="464465162#1" departLane="best" departSpeed="max"/>
    <trip id="v_n_19" type="car" depart="57.8" from="491889865#0" to="519734960" departLane="best" departSpeed="max"/>
    <trip id="v_n_20" type="car" depart="57.8" from="491889865#0" to="519734960" departLane="best" departSpeed="max"/>
    <trip id="v_s_826" type="bus" depart="57.9" from="-1424147361" to="464465162#1" departLane="best" departSpeed="max"/>
    <trip id="v_w_3050" type="motorcycle" depart="58.6" from="-40696199#1" to="519734960" departLane="best" departSpeed="max"/>
    <trip id="v_w_3051" type="truck" depart="59.1" from="-40696199#1" to="-27994446#0" departLane="best" departSpeed="max"/>
    <trip id="v_w_3052" type="truck" depart="59.8" from="-40696199#1" to="688608667" departLane="best" departSpeed="max"/>
    <trip id="v_s_827" type="car" depart="60.0" from="-1424147361" to="464465162#1" departLane="best" departSpeed="max"/>
    <trip id="v_s_828" type="car" depart="62.0" from="-1424147361" to="464465162#1" departLane="best" departSpeed="max"/>
    <trip id="v_e_2299" type="truck" depart="63.0" from="27994464#0" to="-27994446#0" departLane="best" departSpeed="max"/>
    <trip id="v_s_829" type="car" depart="63.6" from="-1424147361" to="464465162#1" departLane="best" departSpeed="max"/>
    <trip id="v_e_2300" type="car" depart="64.5" from="27994464#0" to="464465162#1" departLane="best" departSpeed="max"/>
    <trip id="v_s_830" type="car" depart="64.6" from="-1424147361" to="464465162#1" departLane="best" departSpeed="max"/>
    <trip id="v_n_21" type="bus" depart="65.2" from="491889865#0" to="519734960" departLane="best" departSpeed="max"/>
    <trip id="v_s_831" type="car" depart="67.4" from="-1424147361" to="464465162#1" departLane="best" departSpeed="max"/>
    <trip id="v_s_832" type="car" depart="67.6" from="-1424147361" to="464465162#1" departLane="best" departSpeed="max"/>
    <trip id="v_s_833" type="motorcycle" depart="67.8" from="-1424147361" to="464465162#1" departLane="best" departSpeed="max"/>
    <trip id="v_n_22" type="car" depart="70.6" from="491889865#0" to="519734960" departLane="best" departSpeed="max"/>
    <trip id="v_s_834" type="bus" depart="71.5" from="-1424147361" to="464465162#1" departLane="best" departSpeed="max"/>
    <trip id="v_w_3053" type="car" depart="71.5" from="-40696199#1" to="688608667" departLane="best" departSpeed="max"/>
    <trip id="v_n_23" type="motorcycle" depart="72.5" from="491889865#0" to="519734960" departLane="best" departSpeed="max"/>
    <trip id="v_s_835" type="motorcycle" depart="73.0" from="-1424147361" to="464465162#1" departLane="best" departSpeed="max"/>
    <trip id="v_n_24" type="bus" depart="73.3" from="491889865#0" to="464465162#1" departLane="best" departSpeed="max"/>
    <trip id="v_s_836" type="car" depart="73.3" from="-1424147361" to="519734960" departLane="best" departSpeed="max"/>
    <trip id="v_w_3054" type="car" depart="73.9" from="-40696199#1" to="688608667" departLane="best" departSpeed="max"/>
    <trip id="v_w_3055" type="car" depart="76.7" from="-40696199#1" to="688608667" departLane="best" departSpeed="max"/>
    <trip id="v_s_837" type="car" depart="78.1" from="-1424147361" to="464465162#1" departLane="best" departSpeed="max"/>
    <trip id="v_s_838" type="motorcycle" depart="79.5" from="-1424147361" to="464465162#1" departLane="best" departSpeed="max"/>
    <trip id="v_s_839" type="car" depart="79.5" from="-1424147361" to="-27994446#0" departLane="best" departSpeed="max"/>
    <trip id="v_e_2301" type="car" depart="80.2" from="27994464#0" to="-27994446#0" departLane="best" departSpeed="max"/>
    <trip id="v_w_3056" type="bus" depart="81.3" from="-40696199#1" to="688608667" departLane="best" departSpeed="max"/>
    <trip id="v_w_3057" type="car" depart="82.4" from="-40696199#1" to="688608667" departLane="best" departSpeed="max"/>
    <trip id="v_w_3058" type="car" depart="84.8" from="-40696199#1" to="688608667" departLane="best" departSpeed="max"/>
    <trip id="v_w_3059" type="car" depart="85.1" from="-40696199#1" to="688608667" departLane="best" departSpeed="max"/>
    <trip id="v_e_2302" type="car" depart="85.5" from="27994464#0" to="-27994446#0" departLane="best" departSpeed="max"/>
    <trip id="v_e_2303" type="car" depart="86.8" from="27994464#0" to="-27994446#0" departLane="best" departSpeed="max"/>
    <trip id="v_s_840" type="truck" depart="87.2" from="-1424147361" to="519734960" departLane="best" departSpeed="max"/>
    <trip id="v_n_25" type="car" depart="87.5" from="491889865#0" to="519734960" departLane="best" departSpeed="max"/>
    <trip id="v_s_841" type="motorcycle" depart="87.7" from="-1424147361" to="464465162#1" departLane="best" departSpeed="max"/>
    <trip id="v_w_3060" type="car" depart="87.7" from="-40696199#1" to="688608667" departLane="best" departSpeed="max"/>
    <trip id="v_n_26" type="car" depart="89.3" from="491889865#0" to="519734960" departLane="best" departSpeed="max"/>
    <trip id="v_n_27" type="car" depart="89.8" from="491889865#0" to="519734960" departLane="best" departSpeed="max"/>
    <trip id="v_n_28" type="motorcycle" depart="90.2" from="491889865#0" to="519734960" departLane="best" departSpeed="max"/>
    <trip id="v_s_842" type="car" depart="90.6" from="-1424147361" to="-27994446#0" departLane="best" departSpeed="max"/>
    <trip id="v_e_2304" type="car" depart="90.7" from="27994464#0" to="-27994446#0" departLane="best" departSpeed="max"/>
    <trip id="v_s_843" type="car" depart="90.9" from="-1424147361" to="519734960" departLane="best" departSpeed="max"/>
    <trip id="v_w_3061" type="motorcycle" depart="93.2" from="-40696199#1" to="688608667" departLane="best" departSpeed="max"/>
    <trip id="v_s_844" type="motorcycle" depart="93.5" from="-1424147361" to="464465162#1" departLane="best" departSpeed="max"/>
    <trip id="v_s_845" type="car" depart="93.9" from="-1424147361" to="464465162#1" departLane="best" departSpeed="max"/>
    <trip id="v_e_2305" type="car" depart="98.0" from="27994464#0" to="-27994446#0" departLane="best" departSpeed="max"/>
    <trip id="v_n_29" type="car" depart="98.7" from="491889865#0" to="-27994446#0" departLane="best" departSpeed="max"/>
    <trip id="v_e_2306" type="motorcycle" depart="99.7" from="27994464#0" to="519734960" departLane="best" departSpeed="max"/>
    <trip id="v_s_846" type="car" depart="100.5" from="-1424147361" to="464465162#1" departLane="best" departSpeed="max"/>
    <trip id="v_s_847" type="car" depart="101.2" from="-1424147361" to="464465162#1" departLane="best" departSpeed="max"/>
    <trip id="v_e_2307" type="car" depart="102.2" from="27994464#0" to="-27994446#0" departLane="best" departSpeed="max"/>
    <trip id="v_e_2308" type="car" depart="102.6" from="27994464#0" to="-27994446#0" departLane="best" departSpeed="max"/>
    <trip id="v_n_30" type="truck" depart="102.9" from="491889865#0" to="464465162#1" departLane="best" departSpeed="max"/>
    <trip id="v_s_848" type="car" depart="103.8" from="-1424147361" to="464465162#1" departLane="best" departSpeed="max"/>
    <trip id="v_s_849" type="car" depart="104.5" from="-1424147361" to="464465162#1" departLane="best" departSpeed="max"/>
    <trip id="v_s_850" type="truck" depart="105.6" from="-1424147361" to="464465162#1" departLane="best" departSpeed="max"/>
    <trip id="v_e_2309" type="truck" depart="107.4" from="27994464#0" to="-27994446#0" departLane="best" departSpeed="max"/>
    <trip id="v_w_3062" type="car" depart="107.6" from="-40696199#1" to="519734960" departLane="best" departSpeed="max"/>
    <trip id="v_e_2310" type="car" depart="108.4" from="27994464#0" to="-27994446#0" departLane="best" departSpeed="max"/>
    <trip id="v_n_31" type="car" depart="110.3" from="491889865#0" to="519734960" departLane="best" departSpeed="max"/>
    <trip id="v_s_851" type="car" depart="111.3" from="-1424147361" to="464465162#1" departLane="best" departSpeed="max"/>
    <trip id="v_w_3063" type="motorcycle" depart="111.6" from="-40696199#1" to="688608667" departLane="best" departSpeed="max"/>
    <trip id="v_s_852" type="car" depart="111.8" from="-1424147361" to="464465162#1" departLane="best" departSpeed="max"/>
    <trip id="v_w_3064" type="motorcycle" depart="112.1" from="-40696199#1" to="688608667" departLane="best" departSpeed="max"/>
    <trip id="v_s_853" type="car" depart="113.0" from="-1424147361" to="464465162#1" departLane="best" departSpeed="max"/>
    <trip id="v_s_854" type="car" depart="113.9" from="-1424147361" to="464465162#1" departLane="best" departSpeed="max"/>
    <trip id="v_w_3065" type="car" depart="115.1" from="-40696199#1" to="-27994446#0" departLane="best" departSpeed="max"/>
    <trip id="v_w_3066" type="car" depart="115.6" from="-40696199#1" to="688608667" departLane="best" departSpeed="max"/>
    <trip id="v_n_32" type="car" depart="116.2" from="491889865#0" to="519734960" departLane="best" departSpeed="max"/>
    <trip id="v_w_3067" type="car" depart="116.2" from="-40696199#1" to="688608667" departLane="best" departSpeed="max"/>
    <trip id="v_w_3068" type="car" depart="116.2" from="-40696199#1" to="688608667" departLane="best" departSpeed="max"/>
    <trip id="v_s_855" type="truck" depart="116.8" from="-1424147361" to="-27994446#0" departLane="best" departSpeed="max"/>
    <trip id="v_s_856" type="motorcycle" depart="117.5" from="-1424147361" to="464465162#1" departLane="best" departSpeed="max"/>
    <trip id="v_w_3069" type="truck" depart="119.2" from="-40696199#1" to="464465162#1" departLane="best" departSpeed="max"/>
    <trip id="v_n_33" type="car" depart="119.7" from="491889865#0" to="519734960" departLane="best" departSpeed="max"/>
    <trip id="v_s_857" type="car" depart="120.0" from="-1424147361" to="464465162#1" departLane="best" departSpeed="max"/>
    <trip id="v_w_3070" type="car" depart="120.6" from="-40696199#1" to="-27994446#0" departLane="best" departSpeed="max"/>
    <trip id="v_s_858" type="car" depart="123.0" from="-1424147361" to="464465162#1" departLane="best" departSpeed="max"/>
    <trip id="v_s_859" type="car" depart="123.0" from="-1424147361" to="-27994446#0" departLane="best" departSpeed="max"/>
    <trip id="v_w_3071" type="bus" depart="123.7" from="-40696199#1" to="688608667" departLane="best" departSpeed="max"/>
    <trip id="v_s_860" type="motorcycle" depart="124.6" from="-1424147361" to="464465162#1" departLane="best" departSpeed="max"/>
    <trip id="v_e_2311" type="motorcycle" depart="124.7" from="27994464#0" to="-27994446#0" departLane="best" departSpeed="max"/>
    <trip id="v_s_861" type="car" depart="124.9" from="-1424147361" to="464465162#1" departLane="best" departSpeed="max"/>
    <trip id="v_s_862" type="motorcycle" depart="125.5" from="-1424147361" to="464465162#1" departLane="best" departSpeed="max"/>
    <trip id="v_e_2312" type="car" depart="126.9" from="27994464#0" to="-27994446#0" departLane="best" departSpeed="max"/>
    <trip id="v_w_3072" type="motorcycle" depart="127.3" from="-40696199#1" to="688608667" departLane="best" departSpeed="max"/>
    <trip id="v_s_863" type="truck" depart="128.3" from="-1424147361" to="464465162#1" departLane="best" departSpeed="max"/>
    <trip id="v_s_864" type="car" depart="128.3" from="-1424147361" to="519734960" departLane="best" departSpeed="max"/>
    <trip id="v_w_3073" type="car" depart="129.3" from="-40696199#1" to="688608667" departLane="best" departSpeed="max"/>
    <trip id="v_w_3074" type="car" depart="129.9" from="-40696199#1" to="-27994446#0" departLane="best" departSpeed="max"/>
    <trip id="v_s_865" type="car" depart="131.2" from="-1424147361" to="519734960" departLane="best" departSpeed="max"/>
    <trip id="v_w_3075" type="bus" depart="133.7" from="-40696199#1" to="688608667" departLane="best" departSpeed="max"/>
    <trip id="v_s_866" type="car" depart="135.3" from="-1424147361" to="464465162#1" departLane="best" departSpeed="max"/>
    <trip id="v_w_3076" type="car" depart="135.8" from="-40696199#1" to="688608667" departLane="best" departSpeed="max"/>
    <trip id="v_n_34" type="car" depart="136.0" from="491889865#0" to="-27994446#0" departLane="best" departSpeed="max"/>
    <trip id="v_w_3077" type="bus" depart="136.9" from="-40696199#1" to="688608667" departLane="best" departSpeed="max"/>
    <trip id="v_n_35" type="car" depart="138.1" from="491889865#0" to="519734960" departLane="best" departSpeed="max"/>
    <trip id="v_w_3078" type="car" depart="139.3" from="-40696199#1" to="464465162#1" departLane="best" departSpeed="max"/>
    <trip id="v_n_36" type="truck" depart="141.8" from="491889865#0" to="-27994446#0" departLane="best" departSpeed="max"/>
    <trip id="v_w_3079" type="car" depart="142.0" from="-40696199#1" to="688608667" departLane="best" departSpeed="max"/>
    <trip id="v_w_3080" type="bus" depart="143.9" from="-40696199#1" to="688608667" departLane="best" departSpeed="max"/>
    <trip id="v_s_867" type="car" depart="146.1" from="-1424147361" to="464465162#1" departLane="best" departSpeed="max"/>
    <trip id="v_w_3081" type="truck" depart="146.7" from="-40696199#1" to="688608667" departLane="best" departSpeed="max"/>
    <trip id="v_e_2313" type="car" depart="146.9" from="27994464#0" to="-27994446#0" departLane="best" departSpeed="max"/>
    <trip id="v_s_868" type="car" depart="147.5" from="-1424147361" to="464465162#1" departLane="best" departSpeed="max"/>
    <trip id="v_s_869" type="motorcycle" depart="147.8" from="-1424147361" to="464465162#1" departLane="best" departSpeed="max"/>
    <trip id="v_s_870" type="car" depart="148.0" from="-1424147361" to="464465162#1" departLane="best" departSpeed="max"/>
    <trip id="v_w_3082" type="motorcycle" depart="148.9" from="-40696199#1" to="688608667" departLane="best" departSpeed="max"/>
    <trip id="v_s_871" type="car" depart="149.1" from="-1424147361" to="464465162#1" departLane="best" departSpeed="max"/>
    <trip id="v_w_3083" type="car" depart="149.1" from="-40696199#1" to="519734960" departLane="best" departSpeed="max"/>
    <trip id="v_n_37" type="car" depart="149.7" from="491889865#0" to="519734960" departLane="best" departSpeed="max"/>
    <trip id="v_w_3084" type="car" depart="151.4" from="-40696199#1" to="688608667" departLane="best" departSpeed="max"/>
    <trip id="v_s_872" type="car" depart="152.3" from="-1424147361" to="464465162#1" departLane="best" departSpeed="max"/>
    <trip id="v_s_873" type="car" depart="152.6" from="-1424147361" to="464465162#1" departLane="best" departSpeed="max"/>
    <trip id="v_s_874" type="bus" depart="153.5" from="-1424147361" to="464465162#1" departLane="best" departSpeed="max"/>
    <trip id="v_n_38" type="car" depart="154.1" from="491889865#0" to="519734960" departLane="best" departSpeed="max"/>
    <trip id="v_e_2314" type="car" depart="154.2" from="27994464#0" to="-27994446#0" departLane="best" departSpeed="max"/>
    <trip id="v_e_2315" type="bus" depart="157.8" from="27994464#0" to="-27994446#0" departLane="best" departSpeed="max"/>
    <trip id="v_s_875" type="car" depart="158.7" from="-1424147361" to="464465162#1" departLane="best" departSpeed="max"/>
    <trip id="v_s_876" type="motorcycle" depart="159.0" from="-1424147361" to="464465162#1" departLane="best" departSpeed="max"/>
    <trip id="v_e_2316" type="car" depart="160.4" from="27994464#0" to="-27994446#0" departLane="best" departSpeed="max"/>
    <trip id="v_s_877" type="motorcycle" depart="162.6" from="-1424147361" to="464465162#1" departLane="best" departSpeed="max"/>
    <trip id="v_n_39" type="car" depart="163.0" from="491889865#0" to="519734960" departLane="best" departSpeed="max"/>
    <trip id="v_w_3085" type="car" depart="163.8" from="-40696199#1" to="688608667" departLane="best" departSpeed="max"/>
    <trip id="v_w_3086" type="car" depart="164.9" from="-40696199#1" to="688608667" departLane="best" departSpeed="max"/>
    <trip id="v_w_3087" type="car" depart="165.9" from="-40696199#1" to="464465162#1" departLane="best" departSpeed="max"/>
    <trip id="v_s_878" type="car" depart="166.0" from="-1424147361" to="464465162#1" departLane="best" departSpeed="max"/>
    <trip id="v_s_879" type="car" depart="166.4" from="-1424147361" to="464465162#1" departLane="best" departSpeed="max"/>
    <trip id="v_w_3088" type="motorcycle" depart="166.8" from="-40696199#1" to="519734960" departLane="best" departSpeed="max"/>
    <trip id="v_n_40" type="car" depart="166.9" from="491889865#0" to="-27994446#0" departLane="best" departSpeed="max"/>
    <trip id="v_w_3089" type="car" depart="168.3" from="-40696199#1" to="688608667" departLane="best" departSpeed="max"/>
    <trip id="v_e_2317" type="motorcycle" depart="171.9" from="27994464#0" to="-27994446#0" departLane="best" departSpeed="max"/>
    <trip id="v_n_41" type="truck" depart="172.4" from="491889865#0" to="519734960" departLane="best" departSpeed="max"/>
    <trip id="v_n_42" type="truck" depart="172.6" from="491889865#0" to="519734960" departLane="best" departSpeed="max"/>
    <trip id="v_w_3090" type="car" depart="172.7" from="-40696199#1" to="688608667" departLane="best" departSpeed="max"/>
    <trip id="v_n_43" type="car" depart="173.8" from="491889865#0" to="519734960" departLane="best" departSpeed="max"/>
    <trip id="v_e_2318" type="car" depart="174.7" from="27994464#0" to="-27994446#0" departLane="best" departSpeed="max"/>
    <trip id="v_e_2319" type="truck" depart="174.8" from="27994464#0" to="-27994446#0" departLane="best" departSpeed="max"/>
    <trip id="v_n_44" type="truck" depart="175.3" from="491889865#0" to="519734960" departLane="best" departSpeed="max"/>
    <trip id="v_n_45" type="car" depart="175.7" from="491889865#0" to="519734960" departLane="best" departSpeed="max"/>
    <trip id="v_w_3091" type="car" depart="176.2" from="-40696199#1" to="688608667" departLane="best" departSpeed="max"/>
    <trip id="v_w_3092" type="truck" depart="176.8" from="-40696199#1" to="688608667" departLane="best" departSpeed="max"/>
    <trip id="v_n_46" type="car" depart="176.9" from="491889865#0" to="519734960" departLane="best" departSpeed="max"/>
    <trip id="v_w_3093" type="truck" depart="177.0" from="-40696199#1" to="464465162#1" departLane="best" departSpeed="max"/>
    <trip id="v_n_47" type="car" depart="177.4" from="491889865#0" to="688608667" departLane="best" departSpeed="max"/>
    <trip id="v_e_2320" type="car" depart="177.7" from="27994464#0" to="-27994446#0" departLane="best" departSpeed="max"/>
    <trip id="v_s_880" type="car" depart="178.4" from="-1424147361" to="464465162#1" departLane="best" departSpeed="max"/>
    <trip id="v_w_3094" type="car" depart="178.4" from="-40696199#1" to="519734960" departLane="best" departSpeed="max"/>
    <trip id="v_n_48" type="car" depart="178.8" from="491889865#0" to="688608667" departLane="best" departSpeed="max"/>
    <trip id="v_s_881" type="car" depart="178.8" from="-1424147361" to="464465162#1" departLane="best" departSpeed="max"/>
    <trip id="v_w_3095" type="truck" depart="178.9" from="-40696199#1" to="688608667" departLane="best" departSpeed="max"/>
    <trip id="v_w_3096" type="car" depart="179.5" from="-40696199#1" to="688608667" departLane="best" departSpeed="max"/>
    <trip id="v_s_882" type="car" depart="180.6" from="-1424147361" to="464465162#1" departLane="best" departSpeed="max"/>
    <trip id="v_s_883" type="car" depart="180.7" from="-1424147361" to="464465162#1" departLane="best" departSpeed="max"/>
    <trip id="v_s_884" type="car" depart="183.2" from="-1424147361" to="464465162#1" departLane="best" departSpeed="max"/>
    <trip id="v_n_49" type="motorcycle" depart="183.4" from="491889865#0" to="519734960" departLane="best" departSpeed="max"/>
    <trip id="v_s_885" type="car" depart="184.6" from="-1424147361" to="464465162#1" departLane="best" departSpeed="max"/>
    <trip id="v_n_50" type="truck" depart="185.4" from="491889865#0" to="519734960" departLane="best" departSpeed="max"/>
    <trip id="v_e_2321" type="motorcycle" depart="186.1" from="27994464#0" to="519734960" departLane="best" departSpeed="max"/>
    <trip id="v_n_51" type="motorcycle" depart="187.5" from="491889865#0" to="519734960" departLane="best" departSpeed="max"/>
    <trip id="v_s_886" type="truck" depart="187.7" from="-1424147361" to="688608667" departLane="best" departSpeed="max"/>
    <trip id="v_e_2322" type="motorcycle" depart="187.7" from="27994464#0" to="-27994446#0" departLane="best" departSpeed="max"/>