<?xml version="1.0" encoding="UTF-8"?>
<routes xmlns:xsi="http://www.w3.org/2001/XMLSchema-instance" xsi:noNamespaceSchemaLocation="http://sumo.dlr.de/xsd/routes_file.xsd">

    <!-- Vehicle Types -->
    <vType id="car" accel="2.6" decel="4.5" sigma="0.5" length="4.5" maxSpeed="50" guiShape="passenger"/>
    <vType id="bus" accel="1.2" decel="3.0" sigma="0.5" length="12.0" maxSpeed="30" guiShape="bus"/>
    <vType id="motorcycle" accel="4.0" decel="6.0" sigma="0.5" length="2.0" maxSpeed="60" guiShape="motorcycle"/>
    <vType id="truck" accel="1.0" decel="3.0" sigma="0.5" length="10.0" maxSpeed="25" guiShape="truck"/>
    <vType id="ambulance" accel="3.0" decel="5.0" sigma="0.3" length="5.5" maxSpeed="60" guiShape="emergency" vClass="emergency" color="1,0,0"/>

    <!-- Vehicles for Hour 17:00 (4764 total) -->
    <!-- Location: silk_board, Generated from real arrival rates -->

    <vehicle id="veh_west_3823" type="car" depart="2.0" route="route_west"/>
    <vehicle id="veh_north_1" type="car" depart="2.4" route="route_north"/>
    <vehicle id="veh_south_1775" type="car" depart="2.6" route="route_south"/>
    <vehicle id="veh_south_1776" type="car" depart="3.5" route="route_south"/>
    <vehicle id="veh_north_2" type="car" depart="4.6" route="route_north"/>
    <vehicle id="veh_south_1777" type="car" depart="5.8" route="route_south"/>
    <vehicle id="veh_south_1778" type="car" depart="6.7" route="route_south"/>
    <vehicle id="veh_north_3" type="car" depart="7.5" route="route_north"/>
    <vehicle id="veh_north_4" type="car" depart="8.4" route="route_north"/>
    <vehicle id="veh_east_2814" type="car" depart="10.2" route="route_east"/>
    <vehicle id="veh_north_5" type="motorcycle" depart="10.4" route="route_north"/>
    <vehicle id="veh_south_1779" type="motorcycle" depart="10.5" route="route_south"/>
    <vehicle id="veh_south_1780" type="motorcycle" depart="10.9" route="route_south"/>
    <vehicle id="veh_west_3824" type="car" depart="13.7" route="route_west"/>
    <vehicle id="veh_west_3825" type="car" depart="14.4" route="route_west"/>
    <vehicle id="veh_north_6" type="car" depart="14.5" route="route_north"/>
    <vehicle id="veh_north_7" type="truck" depart="16.3" route="route_north"/>
    <vehicle id="veh_west_3826" type="motorcycle" depart="16.5" route="route_west"/>
    <vehicle id="veh_north_8" type="car" depart="17.1" route="route_north"/>
    <vehicle id="veh_west_3827" type="car" depart="17.8" route="route_west"/>
    <vehicle id="veh_east_2815" type="car" depart="18.1" route="route_east"/>
    <vehicle id="veh_north_9" type="car" depart="18.2" route="route_north"/>
    <vehicle id="veh_south_1781" type="car" depart="18.3" route="route_south"/>
    <vehicle id="veh_east_2816" type="motorcycle" depart="18.5" route="route_east"/>
    <vehicle id="veh_north_10" type="car" depart="18.6" route="route_north"/>
    <vehicle id="veh_east_2817" type="car" depart="18.6" route="route_east"/>
    <vehicle id="veh_west_3828" type="car" depart="18.7" route="route_west"/>
    <vehicle id="veh_east_2818" type="car" depart="18.8" route="route_east"/>
    <vehicle id="veh_south_1782" type="car" depart="19.2" route="route_south"/>
    <vehicle id="veh_north_11" type="car" depart="19.5" route="route_north"/>
    <vehicle id="veh_west_3829" type="car" depart="19.6" route="route_west"/>
    <vehicle id="veh_south_1783" type="car" depart="20.5" route="route_south"/>
    <vehicle id="veh_east_2819" type="car" depart="21.5" route="route_east"/>
    <vehicle id="veh_west_3830" type="car" depart="22.7" route="route_west"/>
    <vehicle id="veh_north_12" type="car" depart="23.6" route="route_north"/>
    <vehicle id="veh_north_13" type="car" depart="24.1" route="route_north"/>
    <vehicle id="veh_north_14" type="car" depart="24.3" route="route_north"/>
    <vehicle id="veh_north_15" type="car" depart="24.6" route="route_north"/>
    <vehicle id="veh_east_2820" type="car" depart="26.2" route="route_east"/>
    <vehicle id="veh_south_1784" type="car" depart="27.4" route="route_south"/>
    <vehicle id="veh_east_2821" type="car" depart="27.6" route="route_east"/>
    <vehicle id="veh_south_1785" type="car" depart="27.7" route="route_south"/>
    <vehicle id="veh_east_2822" type="car" depart="28.3" route="route_east"/>
    <vehicle id="veh_west_3831" type="car" depart="28.4" route="route_west"/>
    <vehicle id="veh_east_2823" type="car" depart="28.8" route="route_east"/>
    <vehicle id="veh_west_3832" type="car" depart="28.8" route="route_west"/>
    <vehicle id="veh_south_1786" type="car" depart="29.9" route="route_south"/>
    <vehicle id="veh_east_2824" type="car" depart="31.0" route="route_east"/>
    <vehicle id="veh_east_2825" type="car" depart="31.8" route="route_east"/>
    <vehicle id="veh_south_1787" type="truck" depart="31.9" route="route_south"/>
    <vehicle id="veh_north_16" type="bus" depart="32.4" route="route_north"/>
    <vehicle id="veh_north_17" type="car" depart="33.5" route="route_north"/>
    <vehicle id="veh_north_18" type="motorcycle" depart="33.5" route="route_north"/>
    <vehicle id="veh_east_2826" type="car" depart="33.7" route="route_east"/>
    <vehicle id="veh_south_1788" type="motorcycle" depart="34.5" route="route_south"/>
    <vehicle id="veh_north_19" type="car" depart="34.6" route="route_north"/>
    <vehicle id="veh_south_1789" type="car" depart="35.0" route="route_south"/>
    <vehicle id="veh_north_20" type="car" depart="36.1" route="route_north"/>
    <vehicle id="veh_north_21" type="car" depart="36.4" route="route_north"/>
    <vehicle id="veh_east_2827" type="car" depart="36.5" route="route_east"/>
    <vehicle id="veh_north_22" type="truck" depart="36.6" route="route_north"/>
    <vehicle id="veh_west_3833" type="car" depart="36.6" route="route_west"/>
    <vehicle id="veh_east_2828" type="car" depart="37.3" route="route_east"/>
    <vehicle id="veh_north_23" type="motorcycle" depart="37.5" route="route_north"/>
    <vehicle id="veh_south_1790" type="car" depart="37.6" route="route_south"/>
    <vehicle id="veh_north_24" type="car" depart="38.8" route="route_north"/>
    <vehicle id="veh_south_1791" type="car" depart="39.2" route="route_south"/>
    <vehicle id="veh_north_25" type="car" depart="39.8" route="route_north"/>
    <vehicle id="veh_east_2829" type="car" depart="40.2" route="route_east"/>
    <vehicle id="veh_north_26" type="car" depart="42.9" route="route_north"/>
    <vehicle id="veh_east_2830" type="car" depart="42.9" route="route_east"/>
    <vehicle id="veh_north_27" type="motorcycle" depart="43.5" route="route_north"/>
    <vehicle id="veh_north_28" type="car" depart="47.0" route="route_north"/>
    <vehicle id="veh_west_3834" type="bus" depart="48.8" route="route_west"/>
    <vehicle id="veh_east_2831" type="car" depart="48.9" route="route_east"/>
    <vehicle id="veh_west_3835" type="car" depart="49.2" route="route_west"/>
    <vehicle id="veh_east_2832" type="truck" depart="49.6" route="route_east"/>
    <vehicle id="veh_west_3836" type="car" depart="49.6" route="route_west"/>
    <vehicle id="veh_north_29" type="car" depart="49.8" route="route_north"/>
    <vehicle id="veh_north_30" type="car" depart="51.3" route="route_north"/>
    <vehicle id="veh_east_2833" type="car" depart="51.3" route="route_east"/>
    <vehicle id="veh_east_2834" type="truck" depart="52.6" route="route_east"/>
    <vehicle id="veh_north_31" type="car" depart="52.7" route="route_north"/>
    <vehicle id="veh_south_1792" type="car" depart="53.1" route="route_south"/>
    <vehicle id="veh_north_32" type="car" depart="53.6" route="route_north"/>
    <vehicle id="veh_east_2835" type="car" depart="54.0" route="route_east"/>
    <vehicle id="veh_east_2836" type="bus" depart="54.0" route="route_east"/>
    <vehicle id="veh_north_33" type="car" depart="55.4" route="route_north"/>
    <vehicle id="veh_north_34" type="motorcycle" depart="56.1" route="route_north"/>
    <vehicle id="veh_south_1793" type="car" depart="56.5" route="route_south"/>
    <vehicle id="veh_south_1794" type="motorcycle" depart="57.1" route="route_south"/>
    <vehicle id="veh_south_1795" type="motorcycle" depart="59.8" route="route_south"/>
    <vehicle id="veh_east_2837" type="car" depart="60.7" route="route_east"/>
    <vehicle id="veh_east_2838" type="car" depart="61.2" route="route_east"/>
    <vehicle id="veh_west_3837" type="car" depart="61.3" route="route_west"/>
    <vehicle id="veh_west_3838" type="car" depart="61.6" route="route_west"/>
    <vehicle id="veh_west_3839" type="car" depart="62.3" route="route_west"/>
    <vehicle id="veh_west_3840" type="bus" depart="63.7" route="route_west"/>
    <vehicle id="veh_south_1796" type="car" depart="64.4" route="route_south"/>
    <vehicle id="veh_north_35" type="car" depart="65.5" route="route_north"/>
    <vehicle id="veh_west_3841" type="car" depart="66.2" route="route_west"/>
    <vehicle id="veh_east_2839" type="car" depart="66.9" route="route_east"/>
    <vehicle id="veh_east_2840" type="car" depart="67.0" route="route_east"/>
    <vehicle id="veh_west_3842" type="car" depart="67.5" route="route_west"/>
    <vehicle id="veh_west_3843" type="car" depart="69.6" route="route_west"/>
    <vehicle id="veh_north_36" type="bus" depart="72.0" route="route_north"/>
    <vehicle id="veh_north_37" type="car" depart="72.3" route="route_north"/>
    <vehicle id="veh_west_3844" type="car" depart="72.5" route="route_west"/>
    <vehicle id="veh_west_3845" type="car" depart="72.5" route="route_west"/>
    <vehicle id="veh_west_3846" type="car" depart="73.3" route="route_west"/>
    <vehicle id="veh_north_38" type="car" depart="77.0" route="route_north"/>
    <vehicle id="veh_east_2841" type="car" depart="77.0" route="route_east"/>
    <vehicle id="veh_west_3847" type="motorcycle" depart="77.2" route="route_west"/>
    <vehicle id="veh_west_3848" type="car" depart="77.4" route="route_west"/>
    <vehicle id="veh_north_39" type="car" depart="78.1" route="route_north"/>
    <vehicle id="veh_south_1797" type="motorcycle" depart="79.2" route="route_south"/>
    <vehicle id="veh_north_40" type="truck" depart="79.6" route="route_north"/>
    <vehicle id="veh_south_1798" type="car" depart="80.3" route="route_south"/>
    <vehicle id="veh_north_41" type="car" depart="80.7" route="route_north"/>
    <vehicle id="veh_north_42" type="car" depart="82.8" route="route_north"/>
    <vehicle id="veh_east_2842" type="car" depart="83.1" route="route_east"/>
    <vehicle id="veh_south_1799" type="motorcycle" depart="83.3" route="route_south"/>
    <vehicle id="veh_north_43" type="car" depart="83.7" route="route_north"/>
    <vehicle id="veh_west_3849" type="car" depart="83.7" route="route_west"/>
    <vehicle id="veh_east_2843" type="car" depart="86.0" route="route_east"/>
    <vehicle id="veh_north_44" type="car" depart="86.3" route="route_north"/>
    <vehicle id="veh_north_45" type="car" depart="88.9" route="route_north"/>
    <vehicle id="veh_east_2844" type="car" depart="90.4" route="route_east"/>
    <vehicle id="veh_north_46" type="car" depart="90.9" route="route_north"/>
    <vehicle id="veh_south_1800" type="car" depart="90.9" route="route_south"/>
    <vehicle id="veh_west_3850" type="car" depart="91.6" route="route_west"/>
    <vehicle id="veh_west_3851" type="motorcycle" depart="92.3" route="route_west"/>
    <vehicle id="veh_north_47" type="motorcycle" depart="93.1" route="route_north"/>
    <vehicle id="veh_south_1801" type="truck" depart="94.1" route="route_south"/>
    <vehicle id="veh_north_48" type="car" depart="95.1" route="route_north"/>
    <vehicle id="veh_north_49" type="car" depart="95.8" route="route_north"/>
    <vehicle id="veh_north_50" type="bus" depart="96.0" route="route_north"/>
    <vehicle id="veh_east_2845" type="motorcycle" depart="96.3" route="route_east"/>
    <vehicle id="veh_north_51" type="car" depart="96.6" route="route_north"/>
    <vehicle id="veh_north_52" type="car" depart="97.0" route="route_north"/>
    <vehicle id="veh_east_2846" type="car" depart="97.1" route="route_east"/>
    <vehicle id="veh_east_2847" type="bus" depart="98.3" route="route_east"/>
    <vehicle id="veh_north_53" type="motorcycle" depart="101.6" route="route_north"/>
    <vehicle id="veh_north_54" type="truck" depart="101.8" route="route_north"/>
    <vehicle id="veh_north_55" type="motorcycle" depart="102.0" route="route_north"/>
    <vehicle id="veh_west_3852" type="car" depart="102.8" route="route_west"/>
    <vehicle id="veh_east_2848" type="car" depart="103.4" route="route_east"/>
    <vehicle id="veh_north_56" type="car" depart="104.0" route="route_north"/>
    <vehicle id="veh_east_2849" type="car" depart="106.1" route="route_east"/>
    <vehicle id="veh_north_57" type="car" depart="106.9" route="route_north"/>
    <vehicle id="veh_north_58" type="car" depart="109.0" route="route_north"/>
    <vehicle id="veh_north_59" type="motorcycle" depart="109.1" route="route_north"/>
    <vehicle id="veh_north_60" type="car" depart="109.5" route="route_north"/>
    <vehicle id="veh_south_1802" type="car" depart="109.6" route="route_south"/>
    <vehicle id="veh_north_61" type="car" depart="110.1" route="route_north"/>
    <vehicle id="veh_north_62" type="bus" depart="111.1" route="route_north"/>
    <vehicle id="veh_west_3853" type="motorcycle" depart="111.8" route="route_west"/>
    <vehicle id="veh_south_1803" type="car" depart="112.5" route="route_south"/>
    <vehicle id="veh_south_1804" type="car" depart="113.3" route="route_south"/>
    <vehicle id="veh_east_2850" type="car" depart="114.3" route="route_east"/>
    <vehicle id="veh_south_1805" type="car" depart="114.7" route="route_south"/>
    <vehicle id="veh_north_63" type="car" depart="115.8" route="route_north"/>
    <vehicle id="veh_west_3854" type="car" depart="116.5" route="route_west"/>
    <vehicle id="veh_north_64" type="car" depart="117.3" route="route_north"/>
    <vehicle id="veh_south_1806" type="bus" depart="117.5" route="route_south"/>
    <vehicle id="veh_north_65" type="motorcycle" depart="117.6" route="route_north"/>
    <vehicle id="veh_south_1807" type="car" depart="117.8" route="route_south"/>
    <vehicle id="veh_east_2851" type="truck" depart="118.5" route="route_east"/>
    <vehicle id="veh_north_66" type="car" depart="121.1" route="route_north"/>
    <vehicle id="veh_south_1808" type="car" depart="121.1" route="route_south"/>
    <vehicle id="veh_north_67" type="car" depart="122.3" route="route_north"/>
    <vehicle id="veh_north_68" type="car" depart="122.6" route="route_north"/>
    <vehicle id="veh_east_2852" type="car" depart="122.7" route="route_east"/>
    <vehicle id="veh_north_69" type="car" depart="124.8" route="route_north"/>
    <vehicle id="veh_north_70" type="bus" depart="125.5" route="route_north"/>
    <vehicle id="veh_north_71" type="car" depart="126.2" route="route_north"/>
    <vehicle id="veh_south_1809" type="motorcycle" depart="126.3" route="route_south"/>
    <vehicle id="veh_east_2853" type="car" depart="126.3" route="route_east"/>
    <vehicle id="veh_east_2854" type="car" depart="126.8" route="route_east"/>
    <vehicle id="veh_south_1810" type="motorcycle" depart="128.8" route="route_south"/>
    <vehicle id="veh_north_72" type="car" depart="129.2" route="route_north"/>
    <vehicle id="veh_east_2855" type="motorcycle" depart="130.3" route="route_east"/>
    <vehicle id="veh_north_73" type="car" depart="131.9" route="route_north"/>
    <vehicle id="veh_east_2856" type="car" depart="131.9" route="route_east"/>
    <vehicle id="veh_north_74" type="motorcycle" depart="132.1" route="route_north"/>
    <vehicle id="veh_south_1811" type="car" depart="132.1" route="route_south"/>
    <vehicle id="veh_west_3855" type="bus" depart="132.7" route="route_west"/>
    <vehicle id="veh_east_2857" type="car" depart="132.8" route="route_east"/>
    <vehicle id="veh_north_75" type="car" depart="133.9" route="route_north"/>
    <vehicle id="veh_north_76" type="car" depart="135.0" route="route_north"/>
    <vehicle id="veh_north_77" type="truck" depart="135.0" route="route_north"/>
    <vehicle id="veh_east_2858" type="truck" depart="135.1" route="route_east"/>
    <vehicle id="veh_south_1812" type="car" depart="135.6" route="route_south"/>
    <vehicle id="veh_north_78" type="motorcycle" depart="135.7" route="route_north"/>
    <vehicle id="veh_north_79" type="car" depart="136.5" route="route_north"/>
    <vehicle id="veh_north_80" type="car" depart="136.9" route="route_north"/>
    <vehicle id="veh_north_81" type="car" depart="136.9" route="route_north"/>
    <vehicle id="veh_south_1813" type="truck" depart="137.4" route="route_south"/>
    <vehicle id="veh_north_82" type="car" depart="138.7" route="route_north"/>
    <vehicle id="veh_south_1814" type="car" depart="139.3" route="route_south"/>
    <vehicle id="veh_north_83" type="car" depart="139.9" route="route_north"/>
    <vehicle id="veh_east_2859" type="car" depart="140.2" route="route_east"/>
    <vehicle id="veh_north_84" type="motorcycle" depart="141.0" route="route_north"/>
    <vehicle id="veh_west_3856" type="car" depart="141.7" route="route_west"/>
    <vehicle id="veh_west_3857" type="car" depart="141.9" route="route_west"/>
    <vehicle id="veh_east_2860" type="car" depart="142.1" route="route_east"/>
    <vehicle id="veh_east_2861" type="car" depart="142.4" route="route_east"/>
    <vehicle id="veh_west_3858" type="truck" depart="142.8" route="route_west"/>
    <vehicle id="veh_south_1815" type="bus" depart="142.9" route="route_south"/>
    <vehicle id="veh_north_85" type="truck" depart="143.0" route="route_north"/>
    <vehicle id="veh_east_2862" type="truck" depart="143.6" route="route_east"/>
    <vehicle id="veh_east_2863" type="car" depart="143.9" route="route_east"/>
    <vehicle id="veh_east_2864" type="car" depart="144.0" route="route_east"/>
    <vehicle id="veh_west_3859" type="car" depart="144.9" route="route_west"/>
    <vehicle id="veh_north_86" type="car" depart="145.5" route="route_north"/>
    <vehicle id="veh_north_87" type="truck" depart="145.7" route="route_north"/>
    <vehicle id="veh_west_3860" type="car" depart="145.8" route="route_west"/>
    <vehicle id="veh_north_88" type="bus" depart="147.7" route="route_north"/>
    <vehicle id="veh_south_1816" type="car" depart="148.5" route="route_south"/>
    <vehicle id="veh_west_3861" type="bus" depart="148.6" route="route_west"/>
    <vehicle id="veh_south_1817" type="car" depart="148.7" route="route_south"/>
    <vehicle id="veh_north_89" type="truck" depart="149.4" route="route_north"/>
    <vehicle id="veh_east_2865" type="motorcycle" depart="149.5" route="route_east"/>
    <vehicle id="veh_north_90" type="truck" depart="150.4" route="route_north"/>
    <vehicle id="veh_north_91" type="car" depart="152.3" route="route_north"/>
    <vehicle id="veh_north_92" type="motorcycle" depart="152.8" route="route_north"/>
    <vehicle id="veh_east_2866" type="car" depart="154.2" route="route_east"/>
    <vehicle id="veh_south_1818" type="car" depart="154.6" route="route_south"/>
    <vehicle id="veh_west_3862" type="car" depart="155.6" route="route_west"/>
    <vehicle id="veh_east_2867" type="truck" depart="156.8" route="route_east"/>
    <vehicle id="veh_north_93" type="bus" depart="157.9" route="route_north"/>
    <vehicle id="veh_north_94" type="car" depart="158.0" route="route_north"/>
    <vehicle id="veh_west_3863" type="car" depart="158.5" route="route_west"/>
    <vehicle id="veh_south_1819" type="car" depart="158.9" route="route_south"/>
    <vehicle id="veh_east_2868" type="car" depart="158.9" route="route_east"/>
    <vehicle id="veh_east_2869" type="truck" depart="159.3" route="route_east"/>
    <vehicle id="veh_east_2870" type="bus" depart="159.5" route="route_east"/>
    <vehicle id="veh_west_3864" type="truck" depart="159.5" route="route_west"/>
    <vehicle id="veh_east_2871" type="motorcycle" depart="160.6" route="route_east"/>
    <vehicle id="veh_south_1820" type="car" depart="161.6" route="route_south"/>
    <vehicle id="veh_south_1821" type="car" depart="161.9" route="route_south"/>
    <vehicle id="veh_north_95" type="car" depart="163.8" route="route_north"/>
    <vehicle id="veh_north_96" type="truck" depart="166.5" route="route_north"/>
    <vehicle id="veh_east_2872" type="car" depart="166.7" route="route_east"/>
    <vehicle id="veh_north_97" type="car" depart="167.0" route="route_north"/>
    <vehicle id="veh_east_2873" type="car" depart="168.9" route="route_east"/>
    <vehicle id="veh_west_3865" type="truck" depart="169.0" route="route_west"/>
    <vehicle id="veh_north_98" type="car" depart="169.1" route="route_north"/>
    <vehicle id="veh_north_99" type="motorcycle" depart="169.6" route="route_north"/>
    <vehicle id="veh_south_1822" type="truck" depart="170.7" route="route_south"/>
    <vehicle id="veh_west_3866" type="car" depart="170.8" route="route_west"/>
    <vehicle id="veh_north_100" type="car" depart="171.3" route="route_north"/>
    <vehicle id="veh_north_101" type="car" depart="172.1" route="route_north"/>
    <vehicle id="veh_north_102" type="motorcycle" depart="172.6" route="route_north"/>
    <vehicle id="veh_west_3867" type="car" depart="172.6" route="route_west"/>
    <vehicle id="veh_west_3868" type="car" depart="173.0" route="route_west"/>
    <vehicle id="veh_north_103" type="motorcycle" depart="173.3" route="route_north"/>
    <vehicle id="veh_south_1823" type="car" depart="176.1" route="route_south"/>
    <vehicle id="veh_south_1824" type="car" depart="176.2" route="route_south"/>
    <vehicle id="veh_south_1825" type="car" depart="176.5" route="route_south"/>
    <vehicle id="veh_east_2874" type="car" depart="176.7" route="route_east"/>
    <vehicle id="veh_west_3869" type="car" depart="177.8" route="route_west"/>
    <vehicle id="veh_south_1826" type="car" depart="179.2" route="route_south"/>
    <vehicle id="veh_east_2875" type="motorcycle" depart="180.9" route="route_east"/>
    <vehicle id="veh_west_3870" type="motorcycle" depart="181.3" route="route_west"/>
    <vehicle id="veh_west_3871" type="motorcycle" depart="181.4" route="route_west"/>
    <vehicle id="veh_north_104" type="car" depart="182.4" route="route_north"/>
    <vehicle id="veh_north_105" type="car" depart="182.5" route="route_north"/>
    <vehicle id="veh_west_3872" type="bus" depart="182.7" route="route_west"/>
    <vehicle id="veh_west_3873" type="car" depart="184.2" route="route_west"/>
    <vehicle id="veh_west_3874" type="bus" depart="184.8" route="route_west"/>
    <vehicle id="veh_west_3875" type="car" depart="185.0" route="route_west"/>
    <vehicle id="veh_south_1827" type="car" depart="185.8" route="route_south"/>
    <vehicle id="veh_east_2876" type="motorcycle" depart="186.1" route="route_east"/>
    <vehicle id="veh_south_1828" type="car" depart="188.1" route="route_south"/>
    <vehicle id="veh_east_2877" type="motorcycle" depart="188.8" route="route_east"/>
    <vehicle id="veh_south_1829" type="motorcycle" depart="189.2" route="route_south"/>
    <vehicle id="veh_west_3876" type="truck" depart="189.9" route="route_west"/>
    <vehicle id="veh_east_2878" type="car" depart="190.2" route="route_east"/>
    <vehicle id="veh_north_106" type="car" depart="190.9" route="route_north"/>
    <vehicle id="veh_west_3877" type="motorcycle" depart="190.9" route="route_west"/>
    <vehicle id="veh_south_1830" type="car" depart="191.1" route="route_south"/>
    <vehicle id="veh_north_107" type="car" depart="195.6" route="route_north"/>
    <vehicle id="veh_south_1831" type="car" depart="195.9" route="route_south"/>
    <vehicle id="veh_north_108" type="motorcycle" depart="196.0" route="route_north"/>
    <vehicle id="veh_south_1832" type="car" depart="196.3" route="route_south"/>
    <vehicle id="veh_west_3878" type="car" depart="197.1" route="route_west"/>
    <vehicle id="veh_south_1833" type="bus" depart="198.6" route="route_south"/>
    <vehicle id="veh_south_1834" type="bus" depart="200.0" route="route_south"/>
    <vehicle id="veh_north_109" type="car" depart="200.9" route="route_north"/>
    <vehicle id="veh_south_1835" type="truck" depart="202.5" route="route_south"/>
    <vehicle id="veh_south_1836" type="car" depart="204.2" route="route_south"/>
    <vehicle id="veh_north_110" type="motorcycle" depart="205.2" route="route_north"/>
    <vehicle id="veh_south_1837" type="car" depart="207.3" route="route_south"/>
    <vehicle id="veh_east_2879" type="motorcycle" depart="208.2" route="route_east"/>
    <vehicle id="veh_north_111" type="car" depart="210.0" route="route_north"/>
    <vehicle id="veh_north_112" type="bus" depart="211.0" route="route_north"/>
    <vehicle id="veh_north_113" type="car" depart="212.2" route="route_north"/>
    <vehicle id="veh_east_2880" type="car" depart="212.2" route="route_east"/>
    <vehicle id="veh_west_3879" type="car" depart="212.5" route="route_west"/>
    <vehicle id="veh_east_2881" type="truck" depart="212.6" route="route_east"/>
    <vehicle id="veh_north_114" type="truck" depart="216.9" route="route_north"/>
    <vehicle id="veh_north_115" type="car" depart="216.9" route="route_north"/>
    <vehicle id="veh_north_116" type="bus" depart="219.0" route="route_north"/>
    <vehicle id="veh_north_117" type="motorcycle" depart="219.6" route="route_north"/>
    <vehicle id="veh_east_2882" type="car" depart="221.6" route="route_east"/>
    <vehicle id="veh_north_118" type="car" depart="222.5" route="route_north"/>
    <vehicle id="veh_south_1838" type="car" depart="222.9" route="route_south"/>
    <vehicle id="veh_south_1839" type="car" depart="223.7" route="route_south"/>
    <vehicle id="veh_south_1840" type="car" depart="223.9" route="route_south"/>
    <vehicle id="veh_east_2883" type="car" depart="224.5" route="route_east"/>
    <vehicle id="veh_north_119" type="truck" depart="224.6" route="route_north"/>
    <vehicle id="veh_south_1841" type="bus" depart="226.4" route="route_south"/>
    <vehicle id="veh_north_120" type="car" depart="226.7" route="route_north"/>
    <vehicle id="veh_south_1842" type="car" depart="229.1" route="route_south"/>
    <vehicle id="veh_west_3880" type="car" depart="230.2" route="route_west"/>
    <vehicle id="veh_east_2884" type="car" depart="232.2" route="route_east"/>
    <vehicle id="veh_north_121" type="car" depart="233.1" route="route_north"/>
    <vehicle id="veh_north_122" type="truck" depart="233.6" route="route_north"/>
    <vehicle id="veh_north_123" type="car" depart="233.6" route="route_north"/>
    <vehicle id="veh_south_1843" type="car" depart="234.7" route="route_south"/>
    <vehicle id="veh_east_2885" type="car" depart="235.0" route="route_east"/>
    <vehicle id="veh_south_1844" type="car" depart="235.3" route="route_south"/>
    <vehicle id="veh_east_2886" type="bus" depart="235.7" route="route_east"/>
    <vehicle id="veh_east_2887" type="car" depart="235.8" route="route_east"/>
    <vehicle id="veh_south_1845" type="motorcycle" depart="236.8" route="route_south"/>
    <vehicle id="veh_west_3881" type="motorcycle" depart="237.5" route="route_west"/>
    <vehicle id="veh_north_124" type="car" depart="237.8" route="route_north"/>
    <vehicle id="veh_west_3882" type="motorcycle" depart="237.8" route="route_west"/>
    <vehicle id="veh_north_125" type="car" depart="238.1" route="route_north"/>
    <vehicle id="veh_east_2888" type="motorcycle" depart="240.3" route="route_east"/>
    <vehicle id="veh_east_2889" type="car" depart="240.4" route="route_east"/>
    <vehicle id="veh_north_126" type="car" depart="242.3" route="route_north"/>
    <vehicle id="veh_north_127" type="car" depart="242.5" route="route_north"/>
    <vehicle id="veh_north_128" type="car" depart="242.5" route="route_north"/>
    <vehicle id="veh_north_129" type="truck" depart="242.7" route="route_north"/>
    <vehicle id="veh_west_3883" type="motorcycle" depart="242.8" route="route_west"/>
    <vehicle id="veh_west_3884" type="truck" depart="243.3" route="route_west"/>
    <vehicle id="veh_north_130" type="car" depart="244.0" route="route_north"/>
    <vehicle id="veh_north_131" type="truck" depart="245.2" route="route_north"/>
    <vehicle id="veh_north_132" type="car" depart="247.4" route="route_north"/>
    <vehicle id="veh_south_1846" type="car" depart="247.9" route="route_south"/>
    <vehicle id="veh_south_1847" type="car" depart="248.1" route="route_south"/>
    <vehicle id="veh_north_133" type="car" depart="249.5" route="route_north"/>
    <vehicle id="veh_south_1848" type="car" depart="250.9" route="route_south"/>
    <vehicle id="veh_north_134" type="car" depart="251.7" route="route_north"/>
    <vehicle id="veh_south_1849" type="car" depart="251.7" route="route_south"/>
    <vehicle id="veh_south_1850" type="car" depart="251.9" route="route_south"/>
    <vehicle id="veh_north_135" type="car" depart="252.1" route="route_north"/>
    <vehicle id="veh_north_136" type="car" depart="252.5" route="route_north"/>
    <vehicle id="veh_south_1851" type="car" depart="253.4" route="route_south"/>
    <vehicle id="veh_south_1852" type="car" depart="253.8" route="route_south"/>
    <vehicle id="veh_south_1853" type="car" depart="254.5" route="route_south"/>
    <vehicle id="veh_west_3885" type="car" depart="254.7" route="route_west"/>
    <vehicle id="veh_west_3886" type="car" depart="256.2" route="route_west"/>
    <vehicle id="veh_north_137" type="motorcycle" depart="257.0" route="route_north"/>
    <vehicle id="veh_east_2890" type="motorcycle" depart="257.8" route="route_east"/>
    <vehicle id="veh_south_1854" type="car" depart="258.5" route="route_south"/>
    <vehicle id="veh_west_3887" type="car" depart="259.5" route="route_west"/>
    <vehicle id="veh_west_3888" type="car" depart="259.6" route="route_west"/>
    <vehicle id="veh_south_1855" type="car" depart="260.2" route="route_south"/>
    <vehicle id="veh_north_138" type="truck" depart="260.4" route="route_north"/>