<routes>
    <!-- Vehicle Types -->
    <vType id="car" accel="2.6" decel="4.5" sigma="0.5" length="4.5" minGap="2.5" maxSpeed="27.78" color="1,0.8,0"/>
    <vType id="bus" accel="1.2" decel="3.0" sigma="0.5" length="12.0" minGap="3.0" maxSpeed="25.0" color="0.2,1,0.2"/>
    <vType id="auto" accel="2.0" decel="4.0" sigma="0.6" length="3.0" minGap="2.0" maxSpeed="22.22" color="0.8,0.8,0"/>
    
    <!-- OFF-PEAK TRAFFIC (Calibrated from Karnataka Govt Data) -->
    <!-- Total: ~200 vehicles/hour - moderate congestion -->
    <!-- Reflects moderate flow: avg speed 28 km/h, delay factor 1.5 -->
    
    <!-- North-South Corridor -->
    <flow id="ns_offpeak" begin="0" end="3600" number="70" from="377132617#0" to="377132617#2" type="car" departLane="best" departSpeed="max"/>
    <flow id="ns_buses_offpeak" begin="0" end="3600" number="10" from="377132617#0" to="377132617#2" type="bus" departLane="best" departSpeed="max"/>
    
    <!-- East-West Corridor -->
    <flow id="ew_offpeak" begin="0" end="3600" number="60" from="1073384217" to="312174028" type="car" departLane="best" departSpeed="max"/>
    <flow id="ew_autos_offpeak" begin="0" end="3600" number="15" from="1073384217" to="312174028" type="auto" departLane="best" departSpeed="max"/>
    
    <!-- Tertiary flows -->
    <flow id="north_entry_offpeak" begin="0" end="3600" number="25" from="1208112303" to="1073384217" type="car" departLane="best" departSpeed="max"/>
    <flow id="south_exit_offpeak" begin="0" end="3600" number="20" from="1303068639#0" to="377132617#2" type="car" departLane="best" departSpeed="max"/>
    
</routes>
