<?xml version="1.0" encoding="UTF-8"?>

<!-- generated on 2025-12-26 23:17:25 by Eclipse SUMO duarouter Version 1.18.0
<configuration xmlns:xsi="http://www.w3.org/2001/XMLSchema-instance" xsi:noNamespaceSchemaLocation="http://sumo.dlr.de/xsd/duarouterConfiguration.xsd">

    <input>
        <net-file value="app/sumo/network/tin_factory.net.xml"/>
        <route-files value="app/sumo/network/trips_tin_factory.xml"/>
    </input>

    <output>
        <output-file value="app/sumo/network/routes_tin_factory.rou.xml"/>
    </output>

    <report>
        <no-warnings value="true"/>
        <ignore-errors value="true"/>
    </report>

</configuration>
-->

<routes>
    <vType id="car" vClass="passenger" guiShape="passenger/sedan" color="1,1,0" accel="2.6" decel="4.5" length="5.0"/> xmlns:xsi="http://www.w3.org/2001/XMLSchema-instance" xsi:noNamespaceSchemaLocation="http://sumo.dlr.de/xsd/routes_file.xsd">
    <vType id="passenger" vClass="passenger"/>
    <vehicle id="0" type="passenger" depart="0.00">
        <route edges="1393798265 1103814254#3 1103814254#4 -1103814252#1 -1103814252#0"/>
    </vehicle>
    <vehicle id="2" type="passenger" depart="1.44">
        <route edges="142865622#2 142865622#3 142865622#4 155830601"/>
    </vehicle>
    <vehicle id="4" type="passenger" depart="2.88">
        <route edges="-338103118 -1103814254#5 -1103814252#1 -1103814252#0"/>
    </vehicle>
    <vehicle id="21" type="passenger" depart="15.12">
        <route edges="-1228550073 -155830603#1 1101614169 155830602#1 -338105122"/>
    </vehicle>
    <vehicle id="25" type="passenger" depart="18.00">
        <route edges="-338101463 -1103814254#3 -1103814254#2 -142865784"/>
    </vehicle>
    <vehicle id="33" type="passenger" depart="23.76">
        <route edges="-1368285724 1103814254#0 1103814254#1 1103814254#2 1103814254#3 1103814254#4 -1103814252#1 -1103814252#0"/>
    </vehicle>
    <vehicle id="34" type="passenger" depart="24.48">
        <route edges="-155830602#3 -155830602#1 -155830602#0"/>
    </vehicle>
    <vehicle id="41" type="passenger" depart="29.52">
        <route edges="1261359822#0 -1368285724 1103814254#0 1103814254#1 1103814254#2 1103814254#3 338101463"/>
    </vehicle>
    <vehicle id="42" type="passenger" depart="30.24">
        <route edges="-338102722 1103814252#1 -1103814254#4 -1103814254#3 -1103814254#2 -142865784"/>
    </vehicle>
    <vehicle id="43" type="passenger" depart="30.96">
        <route edges="799366215 1103814254#0 1103814254#1 1103814254#2 1103814254#3 1103814254#4 1103814254#5 1103814254#6 1182409051#1"/>
    </vehicle>
    <vehicle id="46" type="passenger" depart="33.12">
        <route edges="142865784 -1103814254#1 -1103814254#0 1368285724 1261359822#1 1177167585#0 1177167585#1"/>
    </vehicle>
    <vehicle id="48" type="passenger" depart="34.56">
        <route edges="799366215 1103814254#0 1103814254#1 1103814254#2 1103814254#3 1103814254#4 1103814254#5 1103814254#6 1182409051#1"/>
    </vehicle>
    <vehicle id="50" type="passenger" depart="36.00">
        <route edges="-1101614168 142865623#0 142865623#1 155830603#0 1101614169 155830602#1"/>
    </vehicle>
    <vehicle id="52" type="passenger" depart="37.44">
        <route edges="-142865623#2 155830603#0 1101614169 155830602#1 -338105122 142865622#1"/>
    </vehicle>
    <vehicle id="53" type="passenger" depart="38.16">
        <route edges="-1103814254#2 -1103814254#1 -1103814254#0 1368285724 1261359822#1 1177167585#0 1177167585#1 1177167585#2 1177167585#3 1177167585#4"/>
    </vehicle>
    <vehicle id="56" type="passenger" depart="40.32">
        <route edges="-338104758 142865622#2 142865622#3 -142865623#2"/>
    </vehicle>
    <vehicle id="61" type="passenger" depart="43.92">
        <route edges="142865784 1103814254#2 1103814254#3 1103814254#4 1103814254#5 1103814254#6 1182409051#1"/>
    </vehicle>
    <vehicle id="62" type="passenger" depart="44.64">
        <route edges="-1101614168 -1228550073 -155830603#1 -155830603#0 -142865623#1 -142865623#0 1101614168"/>
    </vehicle>
    <vehicle id="64" type="passenger" depart="46.08">
        <route edges="239773584#3 239773584#4"/>
    </vehicle>
    <vehicle id="68" type="passenger" depart="48.96">
        <route edges="-1101614173 -142865622#2 -142865622#1 338105122 155830602#3"/>
    </vehicle>
    <vehicle id="70" type="passenger" depart="50.40">
        <route edges="-338104758 142865622#2 142865622#3 -142865623#2 -142865623#1 1183856191"/>
    </vehicle>
    <vehicle id="72" type="passenger" depart="51.84">
        <route edges="-338103118 -1103814254#5 -1103814254#4 -1103814254#3 -1103814254#2 -142865784"/>
    </vehicle>
    <vehicle id="74" type="passenger" depart="53.28">
        <route edges="-1183856191 -142865623#0 1101614168"/>
    </vehicle>
    <vehicle id="76" type="passenger" depart="54.72">
        <route edges="-338103118 1103814254#6 1182409051#1"/>
    </vehicle>
    <vehicle id="77" type="passenger" depart="55.44">
        <route edges="-1103814254#4 -1103814254#3 -1103814254#2 -1103814254#1 -142865785"/>
    </vehicle>
    <vehicle id="79" type="passenger" depart="56.88">
        <route edges="-1368285724 1103814254#0 1103814254#1 -142865784"/>
    </vehicle>
    <vehicle id="81" type="passenger" depart="58.32">
        <route edges="-1368285724 1103814254#0 1103814254#1 1103814254#2 1103814254#3 338101463"/>
    </vehicle>
    <vehicle id="83" type="passenger" depart="59.76">
        <route edges="-142865622#1 338105122 -155830602#1 -1101614169 -155830603#0 142865623#2"/>
    </vehicle>
    <vehicle id="84" type="passenger" depart="60.48">
        <route edges="-1183856191 142865623#1 142865623#2 -142865622#3 -142865622#2 -142865622#1 -142865622#0"/>
    </vehicle>
    <vehicle id="85" type="passenger" depart="61.20">
        <route edges="328758436#4 328758436#5 328758436#6 328758436#7 1280803367 -142865622#4 -142865623#2 -142865623#1 1183856191"/>
    </vehicle>
    <vehicle id="87" type="passenger" depart="62.64">
        <route edges="142865785 1103814254#1 -142865784"/>
    </vehicle>
    <vehicle id="89" type="passenger" depart="64.08">
        <route edges="-338103118 -1103814254#5 -1103814252#1 1182408480"/>
    </vehicle>
    <vehicle id="90" type="passenger" depart="64.80">
        <route edges="142865622#1 142865622#2 142865622#3 142865622#4 155830601"/>
    </vehicle>
    <vehicle id="99" type="passenger" depart="71.28">
        <route edges="799366215 1368285724 1261359822#1 1177167585#0 1177167585#1 1177167585#2 1177167585#3 1177167585#4 1177167585#5 239773584#0 239773584#1 239773584#2 239773584#3 239773584#4"/>
    </vehicle>
    <vehicle id="100" type="passenger" depart="72.00">
        <route edges="799366215 1103814254#0 1103814254#1 1103814254#2 1103814254#3 1103814254#4 1103814254#5 338103118"/>
    </vehicle>
    <vehicle id="103" type="passenger" depart="74.16">
        <route edges="-338102722 1103814252#1 -1103814254#4 -1103814254#3 -1103814254#2 -1103814254#1 -1103814254#0"/>
    </vehicle>
    <vehicle id="106" type="passenger" depart="76.32">
        <route edges="-338103118 -1103814254#5 -1103814254#4 -1103814254#3 -1103814254#2 -1103814254#1 -1103814254#0 1368285724 1261359822#1 1177167585#0 1177167585#1"/>
    </vehicle>
    <vehicle id="121" type="passenger" depart="87.12">
        <route edges="1103814254#1 1103814254#2 1103814254#3 1103814254#4 1103814254#5 338103118"/>
    </vehicle>
    <vehicle id="122" type="passenger" depart="87.84">
        <route edges="-1183856191 142865623#1 142865623#2 155830602#0"/>
    </vehicle>
    <vehicle id="125" type="passenger" depart="90.00">
        <route edges="-155830602#3 -155830602#1 -1101614169 -155830603#0 142865623#2 -142865622#3 -142865622#2 -142865622#1 338105122 155830602#3"/>
    </vehicle>
    <vehicle id="136" type="passenger" depart="97.92">
        <route edges="142865554#0 1103814252#1 1103814254#5 338103118"/>
    </vehicle>
    <vehicle id="145" type="passenger" depart="104.40">
        <route edges="-1101614168 142865623#0 142865623#1 155830603#0"/>
    </vehicle>
    <vehicle id="146" type="passenger" depart="105.12">
        <route edges="1393798265 -1103814254#2 -1103814254#1 -142865785"/>
    </vehicle>
    <vehicle id="148" type="passenger" depart="106.56">
        <route edges="-338103118 -1103814254#5 -1103814252#1 -1103814252#0"/>
    </vehicle>
    <vehicle id="150" type="passenger" depart="108.00">
        <route edges="328758436#0 328758436#2 328758436#3 328758436#4 328758436#5 328758436#6 328758436#7 1280803367 -142865622#4 -142865623#2 -142865623#1 1183856191"/>
    </vehicle>
    <vehicle id="157" type="passenger" depart="113.04">
        <route edges="142865784 1103814254#2 1103814254#3 338101463"/>
    </vehicle>
    <vehicle id="159" type="passenger" depart="114.48">
        <route edges="-1182409051#1 -1103814255 338103118"/>
    </vehicle>
    <vehicle id="161" type="passenger" depart="115.92">
        <route edges="142865785 1103814254#1 1103814254#2 1103814254#3 338101463"/>
    </vehicle>
    <vehicle id="162" type="passenger" depart="116.64">
        <route edges="-1101614168 142865623#0 142865623#1 142865623#2 -142865622#3 -142865622#2 -142865622#1 338105122 155830602#3"/>
    </vehicle>
    <vehicle id="163" type="passenger" depart="117.36">
        <route edges="-338101463 1103814254#4 1103814254#5 338103118"/>
    </vehicle>
    <vehicle id="164" type="passenger" depart="118.08">
        <route edges="142865784 1103814254#2 1103814254#3 338101463"/>
    </vehicle>
    <vehicle id="170" type="passenger" depart="122.40">
        <route edges="142865784 -1103814254#1 -142865785"/>
    </vehicle>
    <vehicle id="176" type="passenger" depart="126.72">
        <route edges="328758436#5 328758436#6 328758436#7 1280803367 -142865622#4 -142865622#3 -142865622#2 -142865622#1 -142865622#0"/>
    </vehicle>
    <vehicle id="178" type="passenger" depart="128.16">
        <route edges="799366215 1103814254#0 -142865785"/>
    </vehicle>
    <vehicle id="179" type="passenger" depart="128.88">
        <route edges="-1103814254#1 -1103814254#0 1368285724 1261359822#1 1177167585#0 1177167585#1 1177167585#2 1177167585#3 1177167585#4"/>
    </vehicle>
    <vehicle id="180" type="passenger" depart="129.60">
        <route edges="142865622#1 142865622#2 142865622#3 -142865623#2 -142865623#1 -142865623#0 1101614168"/>
    </vehicle>
    <vehicle id="181" type="passenger" depart="130.32">
        <route edges="1261359822#0 -1368285724 1103814254#0 1103814254#1 1103814254#2 1103814254#3 1103814254#4 1103814254#5 1103814254#6 1182409051#1"/>
    </vehicle>
    <vehicle id="183" type="passenger" depart="131.76">
        <route edges="-142865623#0 -1228550073 -155830603#1 -155830603#0 142865623#2 142865622#4 155830601"/>
    </vehicle>
    <vehicle id="187" type="passenger" depart="134.64">
        <route edges="-338101463 -1103814254#3 -1103814254#2"/>
    </vehicle>
    <vehicle id="190" type="passenger" depart="136.80">
        <route edges="142865622#0 142865622#1 142865622#2 142865622#3 -142865623#2 -142865623#1 -142865623#0 1101614168"/>
    </vehicle>
    <vehicle id="193" type="passenger" depart="138.96">
        <route edges="-1103814255 -1103814254#5 -1103814254#4 -1103814254#3 -1103814254#2 -1103814254#1 -1103814254#0 1368285724 1261359822#1 1177167585#0"/>
    </vehicle>
    <vehicle id="194" type="passenger" depart="139.68">
        <route edges="328758436#5 328758436#6 328758436#7 1280803367 155830601"/>
    </vehicle>
    <vehicle id="195" type="passenger" depart="140.40">
        <route edges="328758436#0 328758436#2 328758436#3 328758436#4 328758436#5 328758436#6 328758436#7 1190419785#1"/>
    </vehicle>
    <vehicle id="196" type="passenger" depart="141.12">
        <route edges="-155830602#3 -155830602#1 -1101614169 -155830603#0 -142865623#1 1183856191"/>
    </vehicle>
    <vehicle id="197" type="passenger" depart="141.84">
        <route edges="-1101614168 142865623#0 142865623#1 155830603#0 1101614169 155830602#1 -338105122"/>
    </vehicle>
    <vehicle id="199" type="passenger" depart="143.28">
        <route edges="142865554#0 1182408480"/>
    </vehicle>
    <vehicle id="200" type="passenger" depart="144.00">
        <route edges="-338103118 -1103814254#5 -1103814254#4 -1103814254#3 -1103814254#2 -142865784"/>
    </vehicle>
    <vehicle id="206" type="passenger" depart="148.32">
        <route edges="142865554#0 1103814252#1 -1103814254#4 -1103814254#3 -1103814254#2 -1103814254#1 -142865785"/>
    </vehicle>
    <vehicle id="211" type="passenger" depart="151.92">
        <route edges="-1183856191 142865623#1 142865623#2 142865622#4 155830601"/>
    </vehicle>
    <vehicle id="214" type="passenger" depart="154.08">
        <route edges="142865623#1 155830603#0"/>
    </vehicle>
    <vehicle id="215" type="passenger" depart="154.80">
        <route edges="-1103814254#1 -1103814254#0 1368285724 1261359822#1 1177167585#0 1177167585#1"/>
    </vehicle>
    <vehicle id="216" type="passenger" depart="155.52">
        <route edges="-1183856191 142865623#1 142865623#2 -142865622#3 -142865622#2 338104758"/>
    </vehicle>
    <vehicle id="217" type="passenger" depart="156.24">
        <route edges="1103814254#0 1103814254#1 1103814254#2 1103814254#3 1103814254#4 -1103814252#1 -1103814252#0"/>
    </vehicle>
    <vehicle id="219" type="passenger" depart="157.68">
        <route edges="-338103118 -1103814254#5 -1103814254#4 -1103814254#3 -1103814254#2 -1103814254#1 -1103814254#0 1368285724 1261359822#1 1177167585#0 1177167585#1 1177167585#2 1177167585#3 1177167585#4 1177167585#5 239773584#0 239773584#1 239773584#2 239773584#3 239773584#4"/>
    </vehicle>
    <vehicle id="221" type="passenger" depart="159.12">
        <route edges="1261359822#0 -1368285724 1103814254#0 1103814254#1 1103814254#2 1103814254#3 1103814254#4 1103814254#5 338103118"/>
    </vehicle>
    <vehicle id="222" type="passenger" depart="159.84">
        <route edges="328758436#0 328758436#2 328758436#3 328758436#4 328758436#5 328758436#6 328758436#7 1190419785#1"/>
    </vehicle>
    <vehicle id="225" type="passenger" depart="162.00">
        <route edges="328758436#0 328758436#2 328758436#3 328758436#4 328758436#5 328758436#6 328758436#7 1280803367 -142865622#4 -142865622#3 -142865622#2 -142865622#1 338105122 155830602#3"/>
    </vehicle>
    <vehicle id="228" type="passenger" depart="164.16">
        <route edges="142865784 1103814254#2 1103814254#3 1103814254#4 1103814254#5 1103814254#6 1182409051#1"/>
    </vehicle>
    <vehicle id="230" type="passenger" depart="165.60">
        <route edges="-1101614173 142865622#3 155830602#0 155830602#1 -338105122"/>
    </vehicle>
    <vehicle id="231" type="passenger" depart="166.32">
        <route edges="-155830602#0 -142865623#2 -142865623#1 -142865623#0 1101614168"/>
    </vehicle>
    <vehicle id="236" type="passenger" depart="169.92">
        <route edges="-338102722 1103814252#1 -1103814254#4 -1103814254#3 -1103814254#2 -142865784"/>
    </vehicle>
    <vehicle id="237" type="passenger" depart="170.64">
        <route edges="-338103118 -1103814254#5 -1103814254#4 338101463"/>
    </vehicle>
    <vehicle id="239" type="passenger" depart="172.08">
        <route edges="155830603#0 1101614169 155830602#1 155830602#3"/>
    </vehicle>
    <vehicle id="242" type="passenger" depart="174.24">
        <route edges="155830602#1 -338105122 142865622#1 338104758"/>
    </vehicle>
    <vehicle id="246" type="passenger" depart="177.12">
        <route edges="-338103118 -1103814254#5 -1103814252#1 -1103814252#0"/>
    </vehicle>
    <vehicle id="249" type="passenger" depart="179.28">
        <route edges="-338104758 -142865622#1 -142865622#0"/>
    </vehicle>
    <vehicle id="250" type="passenger" depart="180.00">
        <route edges="1261359822#0 -1368285724 1103814254#0 1103814254#1 1103814254#2 1103814254#3 1103814254#4 -1103814252#1 -1103814252#0"/>
    </vehicle>
    <vehicle id="252" type="passenger" depart="181.44">
        <route edges="-1101614168 142865623#0 142865623#1 155830603#0 1101614169 155830602#1 -338105122 142865622#1"/>
    </vehicle>
    <vehicle id="253" type="passenger" depart="182.16">
        <route edges="-1182409051#1 -1103814255 -1103814254#5 -1103814252#1 1182408480"/>
    </vehicle>
    <vehicle id="254" type="passenger" depart="182.88">
        <route edges="-1101614170 142865623#0 142865623#1 142865623#2 -142865622#3 1101614173"/>
    </vehicle>
    <vehicle id="255" type="passenger" depart="183.60">
        <route edges="-1183856191 -142865623#0 1101614168"/>
    </vehicle>
    <vehicle id="259" type="passenger" depart="186.48">
        <route edges="-1101614168 142865623#0 1183856191"/>
    </vehicle>
    <vehicle id="261" type="passenger" depart="187.92">
        <route edges="142865554#0 1103814252#1 -1103814254#4 -1103814254#3 -1103814254#2 -1103814254#1 -1103814254#0 1368285724 1261359822#1 1177167585#0 1177167585#1 1177167585#2 1177167585#3 1177167585#4 1177167585#5 239773584#0 239773584#1"/>
    </vehicle>
    <vehicle id="264" type="passenger" depart="190.08">
        <route edges="-1101614168 142865623#0 142865623#1 142865623#2 -142865622#3 -142865622#2 -142865622#1"/>
    </vehicle>
    <vehicle id="267" type="passenger" depart="192.24">
        <route edges="142865622#0 338105122 155830602#3"/>
    </vehicle>
    <vehicle id="269" type="passenger" depart="193.68">
        <route edges="142865623#0 142865623#1 142865623#2 -142865622#3 -142865622#2 -142865622#1 -142865622#0"/>
    </vehicle>
    <vehicle id="272" type="passenger" depart="195.84">
        <route edges="-155830602#3 -338105122 142865622#1 142865622#2 142865622#3 142865622#4 155830601"/>
    </vehicle>
    <vehicle id="273" type="passenger" depart="196.56">
        <route edges="799366215 1103814254#0 1103814254#1 1103814254#2"/>
    </vehicle>
    <vehicle id="281" type="passenger" depart="202.32">
        <route edges="-338105122 142865622#1 142865622#2 1101614173"/>
    </vehicle>
    <vehicle id="284" type="passenger" depart="204.48">
        <route edges="1368285724 1261359822#1 1177167585#0 1177167585#1 1177167585#2 1177167585#3 1177167585#4 1177167585#5 239773584#0 239773584#1 239773584#2 239773584#3 239773584#4"/>
    </vehicle>
    <vehicle id="286" type="passenger" depart="205.92">
        <route edges="-142865622#2 338104758"/>
    </vehicle>
    <vehicle id="288" type="passenger" depart="207.36">
        <route edges="1103814254#4 -1103814252#1 1182408480"/>
    </vehicle>
    <vehicle id="294" type="passenger" depart="211.68">
        <route edges="-338102722 -1103814252#0"/>
    </vehicle>
    <vehicle id="298" type="passenger" depart="214.56">
        <route edges="142865622#0 338105122 -155830602#1"/>
    </vehicle>
    <vehicle id="300" type="passenger" depart="216.00">
        <route edges="-1101614173 142865622#3 155830602#0 155830602#1"/>
    </vehicle>
    <vehicle id="301" type="passenger" depart="216.72">
        <route edges="-338104758 -142865622#1 338105122 155830602#3"/>
    </vehicle>
    <vehicle id="302" type="passenger" depart="217.44">
        <route edges="142865622#0 142865622#1 142865622#2"/>
    </vehicle>
    <vehicle id="305" type="passenger" depart="219.60">
        <route edges="142865622#0 142865622#1 142865622#2 142865622#3 -142865623#2 -142865623#1 -142865623#0 1101614168"/>
    </vehicle>
    <vehicle id="306" type="passenger" depart="220.32">
        <route edges="1261359822#0 -1368285724 1103814254#0 1103814254#1 1103814254#2 1103814254#3 1103814254#4 -1103814252#1 1182408480"/>
    </vehicle>
    <vehicle id="308" type="passenger" depart="221.76">
        <route edges="1228550073 1101614168"/>
    </vehicle>
    <vehicle id="309" type="passenger" depart="222.48">
        <route edges="142865622#0 142865622#1 142865622#2 142865622#3 -142865623#2"/>
    </vehicle>
    <vehicle id="310" type="passenger" depart="223.20">
        <route edges="-142865622#4 -142865622#3 -142865622#2 -142865622#1 -142865622#0"/>
    </vehicle>
    <vehicle id="311" type="passenger" depart="223.92">
        <route edges="-1183856191 142865623#1 142865623#2 -142865622#3 -142865622#2 -142865622#1 -142865622#0"/>
    </vehicle>
    <vehicle id="314" type="passenger" depart="226.08">
        <route edges="-338104758 -142865622#1 338105122 155830602#3"/>
    </vehicle>
    <vehicle id="315" type="passenger" depart="226.80">
        <route edges="799366215 1103814254#0 1103814254#1 1103814254#2 1103814254#3 1103814254#4 1103814254#5 1103814254#6 1182409051#1"/>
    </vehicle>
    <vehicle id="321" type="passenger" depart="231.12">
        <route edges="142865622#0 142865622#1 142865622#2 142865622#3 -142865623#2 -142865623#1 -142865623#0 -1228550073 -155830603#1 -155830603#0 142865623#2 -142865622#3 -142865622#2 -142865622#1 -142865622#0"/>
    </vehicle>
    <vehicle id="327" type="passenger" depart="235.44">
        <route edges="142865785 1103814254#1 1103814254#2 1103814254#3"/>
    </vehicle>
    <vehicle id="329" type="passenger" depart="236.88">
        <route edges="-1101614173 -142865622#2 -142865622#1"/>
    </vehicle>
    <vehicle id="333" type="passenger" depart="239.76">
        <route edges="142865784 -1103814254#1 -142865785"/>
    </vehicle>
    <vehicle id="334" type="passenger" depart="240.48">
        <route edges="1103814254#1 1103814254#2 1103814254#3 1103814254#4 -1103814252#1 1182408480"/>
    </vehicle>
    <vehicle id="341" type="passenger" depart="245.52">
        <route edges="-1182409051#1 -1103814255 -1103814254#5 -1103814254#4"/>
    </vehicle>
    <vehicle id="347" type="passenger" depart="249.84">
        <route edges="142865784 -1103814254#1 -1103814254#0 1368285724 1261359822#1"/>
    </vehicle>
    <vehicle id="348" type="passenger" depart="250.56">
        <route edges="142865554#0 1103814252#1 1103814254#5 338103118"/>
    </vehicle>
    <vehicle id="350" type="passenger" depart="252.00">
        <route edges="142865554#0 1103814252#1 1103814254#5 338103118"/>
    </vehicle>
    <vehicle id="353" type="passenger" depart="254.16">
        <route edges="142865623#0 1183856191"/>
    </vehicle>
    <vehicle id="354" type="passenger" depart="254.88">
        <route edges="-155830602#3 -338105122 -142865622#0"/>
    </vehicle>
    <vehicle id="355" type="passenger" depart="255.60">
        <route edges="142865622#0 142865622#1 142865622#2 142865622#3 142865622#4 155830601"/>
    </vehicle>
    <vehicle id="360" type="passenger" depart="259.20">
        <route edges="-1101614173 -142865622#2 338104758"/>
    </vehicle>
    <vehicle id="362" type="passenger" depart="260.64">
        <route edges="328758436#7 1280803367 -142865622#4 -142865622#3 -142865622#2 -142865622#1 338105122"/>
    </vehicle>
    <vehicle id="364" type="passenger" depart="262.08">
        <route edges="-1101614168 142865623#0 142865623#1 142865623#2 -142865622#3 -142865622#2 -142865622#1 338105122 155830602#3"/>
    </vehicle>
    <vehicle id="365" type="passenger" depart="262.80">
        <route edges="-338104758 142865622#2 142865622#3"/>
    </vehicle>
    <vehicle id="368" type="passenger" depart="264.96">
        <route edges="-338104758 142865622#2 142865622#3 -142865623#2 -142865623#1 -142865623#0 -1228550072"/>
    </vehicle>
    <vehicle id="375" type="passenger" depart="270.00">
        <route edges="-155830603#0 142865623#2 -142865622#3 -142865622#2 338104758"/>
    </vehicle>
    <vehicle id="376" type="passenger" depart="270.72">
        <route edges="-338102722 1103814252#1 1103814254#5 1103814254#6 1182409051#1"/>
    </vehicle>
    <vehicle id="378" type="passenger" depart="272.16">
        <route edges="1103814254#5 1103814254#6"/>
    </vehicle>
    <vehicle id="379" type="passenger" depart="272.88">
        <route edges="-1183856191 142865623#1 142865623#2 -142865622#3 1101614173"/>
    </vehicle>
    <vehicle id="385" type="passenger" depart="277.20">
        <route edges="1261359822#0 -1368285724 1103814254#0 -142865785"/>
    </vehicle>
    <vehicle id="388" type="passenger" depart="279.36">
        <route edges="799366215 1103814254#0 1103814254#1 1103814254#2 1103814254#3 1103814254#4 1103814254#5 338103118"/>
    </vehicle>
    <vehicle id="389" type="passenger" depart="280.08">
        <route edges="-338104758 -142865622#1 -142865622#0"/>
    </vehicle>
    <vehicle id="390" type="passenger" depart="280.80">
        <route edges="142865785 1103814254#1 1103814254#2 1103814254#3 1103814254#4 1103814254#5 1103814254#6 1182409051#1"/>
    </vehicle>
    <vehicle id="393" type="passenger" depart="282.96">
        <route edges="799366215 1103814254#0 -142865785"/>
    </vehicle>
    <vehicle id="398" type="passenger" depart="286.56">
        <route edges="-338102722 1103814252#1 1103814254#5 338103118"/>
    </vehicle>
    <vehicle id="400" type="passenger" depart="288.00">
        <route edges="-155830602#3 -155830602#1 -1101614169 -155830603#0 -142865623#1 -142865623#0 1101614168"/>
    </vehicle>
    <vehicle id="402" type="passenger" depart="289.44">
        <route edges="-338104758 -142865622#1 -142865622#0"/>
    </vehicle>
    <vehicle id="406" type="passenger" depart="292.32">
        <route edges="-1183856191 142865623#1 142865623#2 142865622#4 155830601"/>
    </vehicle>
    <vehicle id="408" type="passenger" depart="293.76">
        <route edges="142865784 1103814254#2 1103814254#3 1103814254#4 -1103814252#1 -1103814252#0"/>
    </vehicle>
    <vehicle id="409" type="passenger" depart="294.48">
        <route edges="142865622#4 155830601"/>
    </vehicle>
    <vehicle id="411" type="passenger" depart="295.92">
        <route edges="142865554#0 1103814252#1 -1103814254#4 -1103814254#3 -1103814254#2 -1103814254#1 -1103814254#0 1368285724 1261359822#1 1177167585#0 1177167585#1 1177167585#2 1177167585#3 1177167585#4 1177167585#5 239773584#0 239773584#1 239773584#2 239773584#3 239773584#4"/>
    </vehicle>
    <vehicle id="412" type="passenger" depart="296.64">
        <route edges="799366215 1103814254#0 1103814254#1 1103814254#2 1103814254#3 1103814254#4 1103814254#5 1103814254#6 1182409051#1"/>
    </vehicle>
    <vehicle id="414" type="passenger" depart="298.08">
        <route edges="1261359822#0 -1368285724 1103814254#0 1103814254#1 1103814254#2 1103814254#3 338101463"/>
    </vehicle>
    <vehicle id="416" type="passenger" depart="299.52">
        <route edges="1103814254#1 1103814254#2 1103814254#3 1103814254#4 -1103814252#1 1182408480"/>
    </vehicle>
    <vehicle id="419" type="passenger" depart="301.68">
        <route edges="-338104758 142865622#2 142865622#3 -142865623#2 -142865623#1 -142865623#0 -1228550073 -155830603#1 -155830603#0 142865623#2 -142865622#3 -142865622#2 338104758"/>
    </vehicle>
    <vehicle id="424" type="passenger" depart="305.28">
        <route edges="142865622#0 338105122 155830602#3"/>
    </vehicle>
    <vehicle id="427" type="passenger" depart="307.44">
        <route edges="328758436#0 328758436#2 328758436#3 328758436#4 328758436#5 328758436#6 328758436#7 1280803367 -142865622#4 -142865622#3 -142865622#2 -142865622#1 338105122"/>
    </vehicle>
    <vehicle id="433" type="passenger" depart="311.76">
        <route edges="-155830602#3 -338105122 142865622#1 142865622#2 1101614173"/>
    </vehicle>
    <vehicle id="435" type="passenger" depart="313.20">
        <route edges="1177167585#4 1177167585#5 239773584#0 239773584#1 239773584#2 239773584#3"/>
    </vehicle>
    <vehicle id="436" type="passenger" depart="313.92">
        <route edges="-1182409051#1 -1103814255 -1103814254#5"/>
    </vehicle>
    <vehicle id="439" type="passenger" depart="316.08">
        <route edges="-1182409051#1 -1103814255 -1103814254#5 -1103814252#1 1182408480"/>
    </vehicle>
    <vehicle id="442" type="passenger" depart="318.24">
        <route edges="328758436#0 328758436#2 328758436#3 328758436#4 328758436#5 328758436#6 328758436#7 1280803367 155830601"/>
    </vehicle>
    <vehicle id="443" type="passenger" depart="318.96">
        <route edges="-1182409051#1 -1103814255 -1103814254#5 -1103814254#4 -1103814254#3 -1103814254#2 -1103814254#1 -1103814254#0 1368285724 1261359822#1 1177167585#0 1177167585#1 1177167585#2 1177167585#3 1177167585#4 1177167585#5"/>
    </vehicle>
    <vehicle id="445" type="passenger" depart="320.40">
        <route edges="1393798265 -1103814254#2 -1103814254#1 -1103814254#0 1368285724 1261359822#1 1177167585#0 1177167585#1"/>
    </vehicle>
    <vehicle id="452" type="passenger" depart="325.44">
        <route edges="-155830602#1 -1101614169 -155830603#0 -142865623#1 1183856191"/>
    </vehicle>
    <vehicle id="453" type="passenger" depart="326.16">
        <route edges="142865622#0 338105122 155830602#3"/>
    </vehicle>
    <vehicle id="464" type="passenger" depart="334.08">
        <route edges="142865622#1 142865622#2 142865622#3 -142865623#2 -142865623#1 -142865623#0 -1228550072"/>
    </vehicle>
    <vehicle id="465" type="passenger" depart="334.80">
        <route edges="-155830602#3 -155830602#1 -1101614169 -155830603#0 142865623#2 -142865622#3 -142865622#2 -142865622#1 338105122 155830602#3"/>
    </vehicle>
    <vehicle id="466" type="passenger" depart="335.52">
        <route edges="-1183856191 142865623#1 142865623#2 -142865622#3 -142865622#2 -142865622#1 -142865622#0"/>
    </vehicle>
    <vehicle id="468" type="passenger" depart="336.96">
        <route edges="1103814254#3 1103814254#4 1103814254#5 338103118"/>
    </vehicle>
    <vehicle id="470" type="passenger" depart="338.40">
        <route edges="142865785 1103814254#1 1103814254#2 1103814254#3 1103814254#4 -1103814252#1 1182408480"/>
    </vehicle>
    <vehicle id="475" type="passenger" depart="342.00">
        <route edges="142865622#0 142865622#1 338104758"/>
    </vehicle>
    <vehicle id="476" type="passenger" depart="342.72">