<?xml version="1.0" encoding="UTF-8"?>
<routes xmlns:xsi="http://www.w3.org/2001/XMLSchema-instance" xsi:noNamespaceSchemaLocation="http://sumo.dlr.de/xsd/routes_file.xsd">

    <!-- Vehicle Types -->
    <vType id="car" accel="2.6" decel="4.5" sigma="0.5" length="4.5" maxSpeed="50" guiShape="passenger"/>
    <vType id="motorcycle" accel="4.0" decel="6.0" sigma="0.5" length="2.0" maxSpeed="60" guiShape="motorcycle"/>
    <vType id="bus" accel="1.2" decel="3.0" sigma="0.5" length="12.0" maxSpeed="30" guiShape="bus"/>
    <vType id="truck" accel="1.0" decel="3.0" sigma="0.5" length="10.0" maxSpeed="25" guiShape="truck"/>
    <vType id="emergency" accel="3.0" decel="5.0" sigma="0.3" length="5.5" maxSpeed="60" guiShape="emergency" vClass="emergency" color="1,0,0"/>

    <!-- Vehicle Trips (2974 total) -->
    <trip id="v_s_625" type="car" depart="0.8" from="-1424147361" to="464465162#1" departLane="best" departSpeed="max"/>
    <trip id="v_s_626" type="car" depart="0.8" from="-1424147361" to="464465162#1" departLane="best" departSpeed="max"/>
    <trip id="v_s_627" type="car" depart="0.9" from="-1424147361" to="464465162#1" departLane="best" departSpeed="max"/>
    <trip id="v_s_628" type="car" depart="2.0" from="-1424147361" to="464465162#1" departLane="best" departSpeed="max"/>
    <trip id="v_e_1785" type="car" depart="2.5" from="27994464#0" to="-27994446#0" departLane="best" departSpeed="max"/>
    <trip id="v_e_1786" type="car" depart="3.3" from="27994464#0" to="-27994446#0" departLane="best" departSpeed="max"/>
    <trip id="v_e_1787" type="car" depart="4.2" from="27994464#0" to="688608667" departLane="best" departSpeed="max"/>
    <trip id="v_w_2380" type="car" depart="4.9" from="-40696199#1" to="688608667" departLane="best" departSpeed="max"/>
    <trip id="v_s_629" type="car" depart="5.4" from="-1424147361" to="464465162#1" departLane="best" departSpeed="max"/>
    <trip id="v_n_1" type="motorcycle" depart="5.9" from="491889865#0" to="464465162#1" departLane="best" departSpeed="max"/>
    <trip id="v_n_2" type="motorcycle" depart="6.0" from="491889865#0" to="519734960" departLane="best" departSpeed="max"/>
    <trip id="v_w_2381" type="motorcycle" depart="6.1" from="-40696199#1" to="688608667" departLane="best" departSpeed="max"/>
    <trip id="v_w_2382" type="car" depart="6.2" from="-40696199#1" to="688608667" departLane="best" departSpeed="max"/>
    <trip id="v_e_1788" type="motorcycle" depart="7.4" from="27994464#0" to="-27994446#0" departLane="best" departSpeed="max"/>
    <trip id="v_n_3" type="car" depart="7.9" from="491889865#0" to="519734960" departLane="best" departSpeed="max"/>
    <trip id="v_s_630" type="car" depart="7.9" from="-1424147361" to="464465162#1" departLane="best" departSpeed="max"/>
    <trip id="v_n_4" type="car" depart="9.3" from="491889865#0" to="519734960" departLane="best" departSpeed="max"/>
    <trip id="v_s_631" type="car" depart="10.2" from="-1424147361" to="-27994446#0" departLane="best" departSpeed="max"/>
    <trip id="v_e_1789" type="car" depart="14.6" from="27994464#0" to="-27994446#0" departLane="best" departSpeed="max"/>
    <trip id="v_s_632" type="car" depart="15.6" from="-1424147361" to="-27994446#0" departLane="best" departSpeed="max"/>
    <trip id="v_s_633" type="truck" depart="16.5" from="-1424147361" to="464465162#1" departLane="best" departSpeed="max"/>
    <trip id="v_n_5" type="motorcycle" depart="17.0" from="491889865#0" to="519734960" departLane="best" departSpeed="max"/>
    <trip id="v_w_2383" type="bus" depart="17.4" from="-40696199#1" to="688608667" departLane="best" departSpeed="max"/>
    <trip id="v_s_634" type="car" depart="17.8" from="-1424147361" to="464465162#1" departLane="best" departSpeed="max"/>
    <trip id="v_s_635" type="car" depart="18.8" from="-1424147361" to="464465162#1" departLane="best" departSpeed="max"/>
    <trip id="v_e_1790" type="car" depart="19.5" from="27994464#0" to="-27994446#0" departLane="best" departSpeed="max"/>
    <trip id="v_e_1791" type="car" depart="23.0" from="27994464#0" to="-27994446#0" departLane="best" departSpeed="max"/>
    <trip id="v_n_6" type="car" depart="23.6" from="491889865#0" to="519734960" departLane="best" departSpeed="max"/>
    <trip id="v_s_636" type="car" depart="27.4" from="-1424147361" to="464465162#1" departLane="best" departSpeed="max"/>
    <trip id="v_s_637" type="car" depart="31.4" from="-1424147361" to="464465162#1" departLane="best" departSpeed="max"/>
    <trip id="v_s_638" type="car" depart="31.8" from="-1424147361" to="464465162#1" departLane="best" departSpeed="max"/>
    <trip id="v_w_2384" type="car" depart="32.0" from="-40696199#1" to="688608667" departLane="best" departSpeed="max"/>
    <trip id="v_w_2385" type="car" depart="32.2" from="-40696199#1" to="688608667" departLane="best" departSpeed="max"/>
    <trip id="v_n_7" type="motorcycle" depart="36.4" from="491889865#0" to="464465162#1" departLane="best" departSpeed="max"/>
    <trip id="v_n_8" type="truck" depart="36.9" from="491889865#0" to="519734960" departLane="best" departSpeed="max"/>
    <trip id="v_s_639" type="car" depart="36.9" from="-1424147361" to="464465162#1" departLane="best" departSpeed="max"/>
    <trip id="v_s_640" type="car" depart="38.6" from="-1424147361" to="464465162#1" departLane="best" departSpeed="max"/>
    <trip id="v_e_1792" type="car" depart="38.7" from="27994464#0" to="-27994446#0" departLane="best" departSpeed="max"/>
    <trip id="v_e_1793" type="car" depart="39.0" from="27994464#0" to="-27994446#0" departLane="best" departSpeed="max"/>
    <trip id="v_w_2386" type="car" depart="39.0" from="-40696199#1" to="688608667" departLane="best" departSpeed="max"/>
    <trip id="v_e_1794" type="truck" depart="39.6" from="27994464#0" to="-27994446#0" departLane="best" departSpeed="max"/>
    <trip id="v_n_9" type="car" depart="40.1" from="491889865#0" to="-27994446#0" departLane="best" departSpeed="max"/>
    <trip id="v_n_10" type="car" depart="40.3" from="491889865#0" to="-27994446#0" departLane="best" departSpeed="max"/>
    <trip id="v_n_11" type="car" depart="41.7" from="491889865#0" to="519734960" departLane="best" departSpeed="max"/>
    <trip id="v_w_2387" type="car" depart="41.9" from="-40696199#1" to="-27994446#0" departLane="best" departSpeed="max"/>
    <trip id="v_s_641" type="car" depart="43.1" from="-1424147361" to="519734960" departLane="best" departSpeed="max"/>
    <trip id="v_n_12" type="car" depart="45.7" from="491889865#0" to="-27994446#0" departLane="best" departSpeed="max"/>
    <trip id="v_n_13" type="car" depart="45.9" from="491889865#0" to="-27994446#0" departLane="best" departSpeed="max"/>
    <trip id="v_n_14" type="car" depart="47.2" from="491889865#0" to="519734960" departLane="best" departSpeed="max"/>
    <trip id="v_s_642" type="truck" depart="49.8" from="-1424147361" to="464465162#1" departLane="best" departSpeed="max"/>
    <trip id="v_s_643" type="car" depart="49.9" from="-1424147361" to="464465162#1" departLane="best" departSpeed="max"/>
    <trip id="v_s_644" type="car" depart="50.6" from="-1424147361" to="519734960" departLane="best" departSpeed="max"/>
    <trip id="v_s_645" type="car" depart="50.9" from="-1424147361" to="464465162#1" departLane="best" departSpeed="max"/>
    <trip id="v_s_646" type="car" depart="51.0" from="-1424147361" to="464465162#1" departLane="best" departSpeed="max"/>
    <trip id="v_e_1795" type="car" depart="51.0" from="27994464#0" to="-27994446#0" departLane="best" departSpeed="max"/>
    <trip id="v_w_2388" type="truck" depart="51.2" from="-40696199#1" to="688608667" departLane="best" departSpeed="max"/>
    <trip id="v_w_2389" type="car" depart="52.0" from="-40696199#1" to="688608667" departLane="best" departSpeed="max"/>
    <trip id="v_n_15" type="car" depart="53.2" from="491889865#0" to="688608667" departLane="best" departSpeed="max"/>
    <trip id="v_s_647" type="car" depart="53.8" from="-1424147361" to="464465162#1" departLane="best" departSpeed="max"/>
    <trip id="v_e_1796" type="car" depart="56.7" from="27994464#0" to="688608667" departLane="best" departSpeed="max"/>
    <trip id="v_s_648" type="car" depart="57.6" from="-1424147361" to="464465162#1" departLane="best" departSpeed="max"/>
    <trip id="v_n_16" type="truck" depart="57.8" from="491889865#0" to="464465162#1" departLane="best" departSpeed="max"/>
    <trip id="v_s_649" type="car" depart="57.8" from="-1424147361" to="519734960" departLane="best" departSpeed="max"/>
    <trip id="v_n_17" type="car" depart="59.2" from="491889865#0" to="519734960" departLane="best" departSpeed="max"/>
    <trip id="v_s_650" type="car" depart="62.0" from="-1424147361" to="464465162#1" departLane="best" departSpeed="max"/>
    <trip id="v_s_651" type="motorcycle" depart="63.6" from="-1424147361" to="464465162#1" departLane="best" departSpeed="max"/>
    <trip id="v_n_18" type="car" depart="64.3" from="491889865#0" to="519734960" departLane="best" departSpeed="max"/>
    <trip id="v_s_652" type="motorcycle" depart="64.4" from="-1424147361" to="464465162#1" departLane="best" departSpeed="max"/>
    <trip id="v_s_653" type="car" depart="65.1" from="-1424147361" to="519734960" departLane="best" departSpeed="max"/>
    <trip id="v_e_1797" type="car" depart="65.8" from="27994464#0" to="-27994446#0" departLane="best" departSpeed="max"/>
    <trip id="v_e_1798" type="bus" depart="65.9" from="27994464#0" to="464465162#1" departLane="best" departSpeed="max"/>
    <trip id="v_w_2390" type="car" depart="68.6" from="-40696199#1" to="688608667" departLane="best" departSpeed="max"/>
    <trip id="v_e_1799" type="car" depart="70.0" from="27994464#0" to="-27994446#0" departLane="best" departSpeed="max"/>
    <trip id="v_e_1800" type="car" depart="70.0" from="27994464#0" to="688608667" departLane="best" departSpeed="max"/>
    <trip id="v_w_2391" type="car" depart="70.8" from="-40696199#1" to="688608667" departLane="best" departSpeed="max"/>
    <trip id="v_e_1801" type="car" depart="71.2" from="27994464#0" to="-27994446#0" departLane="best" departSpeed="max"/>
    <trip id="v_s_654" type="car" depart="71.3" from="-1424147361" to="464465162#1" departLane="best" departSpeed="max"/>
    <trip id="v_s_655" type="car" depart="71.5" from="-1424147361" to="464465162#1" departLane="best" departSpeed="max"/>
    <trip id="v_e_1802" type="car" depart="71.8" from="27994464#0" to="-27994446#0" departLane="best" departSpeed="max"/>
    <trip id="v_w_2392" type="car" depart="72.5" from="-40696199#1" to="688608667" departLane="best" departSpeed="max"/>
    <trip id="v_s_656" type="car" depart="73.7" from="-1424147361" to="464465162#1" departLane="best" departSpeed="max"/>
    <trip id="v_n_19" type="car" depart="73.9" from="491889865#0" to="519734960" departLane="best" departSpeed="max"/>
    <trip id="v_n_20" type="car" depart="74.0" from="491889865#0" to="519734960" departLane="best" departSpeed="max"/>
    <trip id="v_s_657" type="car" depart="74.7" from="-1424147361" to="464465162#1" departLane="best" departSpeed="max"/>
    <trip id="v_e_1803" type="car" depart="78.1" from="27994464#0" to="519734960" departLane="best" departSpeed="max"/>
    <trip id="v_s_658" type="car" depart="80.0" from="-1424147361" to="464465162#1" departLane="best" departSpeed="max"/>
    <trip id="v_w_2393" type="car" depart="82.5" from="-40696199#1" to="464465162#1" departLane="best" departSpeed="max"/>
    <trip id="v_n_21" type="bus" depart="83.4" from="491889865#0" to="519734960" departLane="best" departSpeed="max"/>
    <trip id="v_s_659" type="car" depart="84.1" from="-1424147361" to="519734960" departLane="best" departSpeed="max"/>
    <trip id="v_s_660" type="car" depart="85.3" from="-1424147361" to="464465162#1" departLane="best" departSpeed="max"/>
    <trip id="v_s_661" type="truck" depart="88.1" from="-1424147361" to="464465162#1" departLane="best" departSpeed="max"/>
    <trip id="v_w_2394" type="truck" depart="89.0" from="-40696199#1" to="688608667" departLane="best" departSpeed="max"/>
    <trip id="v_n_22" type="car" depart="90.3" from="491889865#0" to="519734960" departLane="best" departSpeed="max"/>
    <trip id="v_e_1804" type="car" depart="91.3" from="27994464#0" to="-27994446#0" departLane="best" departSpeed="max"/>
    <trip id="v_s_662" type="car" depart="91.6" from="-1424147361" to="464465162#1" departLane="best" departSpeed="max"/>
    <trip id="v_n_23" type="car" depart="92.7" from="491889865#0" to="519734960" departLane="best" departSpeed="max"/>
    <trip id="v_s_663" type="car" depart="92.8" from="-1424147361" to="464465162#1" departLane="best" departSpeed="max"/>
    <trip id="v_n_24" type="truck" depart="93.7" from="491889865#0" to="519734960" departLane="best" departSpeed="max"/>
    <trip id="v_s_664" type="car" depart="93.9" from="-1424147361" to="464465162#1" departLane="best" departSpeed="max"/>
    <trip id="v_s_665" type="motorcycle" depart="94.3" from="-1424147361" to="519734960" departLane="best" departSpeed="max"/>
    <trip id="v_e_1805" type="truck" depart="94.6" from="27994464#0" to="-27994446#0" departLane="best" departSpeed="max"/>
    <trip id="v_s_666" type="car" depart="97.7" from="-1424147361" to="464465162#1" departLane="best" departSpeed="max"/>
    <trip id="v_s_667" type="car" depart="98.5" from="-1424147361" to="464465162#1" departLane="best" departSpeed="max"/>
    <trip id="v_s_668" type="motorcycle" depart="99.6" from="-1424147361" to="464465162#1" departLane="best" departSpeed="max"/>
    <trip id="v_s_669" type="truck" depart="99.8" from="-1424147361" to="464465162#1" departLane="best" departSpeed="max"/>
    <trip id="v_e_1806" type="car" depart="104.5" from="27994464#0" to="-27994446#0" departLane="best" departSpeed="max"/>
    <trip id="v_w_2395" type="car" depart="106.2" from="-40696199#1" to="688608667" departLane="best" departSpeed="max"/>
    <trip id="v_s_670" type="car" depart="109.0" from="-1424147361" to="464465162#1" departLane="best" departSpeed="max"/>
    <trip id="v_n_25" type="car" depart="111.9" from="491889865#0" to="519734960" departLane="best" departSpeed="max"/>
    <trip id="v_e_1807" type="car" depart="113.5" from="27994464#0" to="519734960" departLane="best" departSpeed="max"/>
    <trip id="v_n_26" type="car" depart="114.2" from="491889865#0" to="464465162#1" departLane="best" departSpeed="max"/>
    <trip id="v_n_27" type="car" depart="114.8" from="491889865#0" to="519734960" departLane="best" departSpeed="max"/>
    <trip id="v_n_28" type="car" depart="115.4" from="491889865#0" to="519734960" departLane="best" departSpeed="max"/>
    <trip id="v_s_671" type="car" depart="115.6" from="-1424147361" to="464465162#1" departLane="best" departSpeed="max"/>
    <trip id="v_e_1808" type="car" depart="120.6" from="27994464#0" to="-27994446#0" departLane="best" departSpeed="max"/>
    <trip id="v_e_1809" type="motorcycle" depart="122.0" from="27994464#0" to="-27994446#0" departLane="best" departSpeed="max"/>
    <trip id="v_s_672" type="car" depart="123.1" from="-1424147361" to="464465162#1" departLane="best" departSpeed="max"/>
    <trip id="v_s_673" type="motorcycle" depart="126.1" from="-1424147361" to="464465162#1" departLane="best" departSpeed="max"/>
    <trip id="v_n_29" type="car" depart="126.2" from="491889865#0" to="519734960" departLane="best" departSpeed="max"/>
    <trip id="v_s_674" type="car" depart="127.9" from="-1424147361" to="464465162#1" departLane="best" departSpeed="max"/>
    <trip id="v_e_1810" type="motorcycle" depart="128.2" from="27994464#0" to="-27994446#0" departLane="best" departSpeed="max"/>
    <trip id="v_w_2396" type="car" depart="129.0" from="-40696199#1" to="464465162#1" departLane="best" departSpeed="max"/>
    <trip id="v_s_675" type="car" depart="130.0" from="-1424147361" to="464465162#1" departLane="best" departSpeed="max"/>
    <trip id="v_n_30" type="car" depart="131.6" from="491889865#0" to="519734960" departLane="best" departSpeed="max"/>
    <trip id="v_e_1811" type="car" depart="132.7" from="27994464#0" to="-27994446#0" departLane="best" departSpeed="max"/>
    <trip id="v_e_1812" type="truck" depart="135.9" from="27994464#0" to="-27994446#0" departLane="best" departSpeed="max"/>
    <trip id="v_n_31" type="car" depart="141.1" from="491889865#0" to="519734960" departLane="best" departSpeed="max"/>
    <trip id="v_s_676" type="car" depart="141.1" from="-1424147361" to="464465162#1" departLane="best" departSpeed="max"/>
    <trip id="v_n_32" type="car" depart="148.6" from="491889865#0" to="519734960" departLane="best" departSpeed="max"/>
    <trip id="v_s_677" type="car" depart="149.9" from="-1424147361" to="464465162#1" departLane="best" departSpeed="max"/>
    <trip id="v_e_1813" type="car" depart="152.7" from="27994464#0" to="-27994446#0" departLane="best" departSpeed="max"/>
    <trip id="v_n_33" type="car" depart="153.1" from="491889865#0" to="519734960" departLane="best" departSpeed="max"/>
    <trip id="v_s_678" type="car" depart="153.4" from="-1424147361" to="-27994446#0" departLane="best" departSpeed="max"/>
    <trip id="v_s_679" type="car" depart="158.2" from="-1424147361" to="464465162#1" departLane="best" departSpeed="max"/>
    <trip id="v_e_1814" type="car" depart="158.4" from="27994464#0" to="-27994446#0" departLane="best" departSpeed="max"/>
    <trip id="v_e_1815" type="car" depart="158.7" from="27994464#0" to="-27994446#0" departLane="best" departSpeed="max"/>
    <trip id="v_s_680" type="car" depart="159.4" from="-1424147361" to="464465162#1" departLane="best" departSpeed="max"/>
    <trip id="v_e_1816" type="bus" depart="159.9" from="27994464#0" to="519734960" departLane="best" departSpeed="max"/>
    <trip id="v_s_681" type="bus" depart="161.0" from="-1424147361" to="464465162#1" departLane="best" departSpeed="max"/>
    <trip id="v_s_682" type="car" depart="161.5" from="-1424147361" to="464465162#1" departLane="best" departSpeed="max"/>
    <trip id="v_s_683" type="bus" depart="163.0" from="-1424147361" to="464465162#1" departLane="best" departSpeed="max"/>
    <trip id="v_e_1817" type="car" depart="164.1" from="27994464#0" to="-27994446#0" departLane="best" departSpeed="max"/>
    <trip id="v_w_2397" type="car" depart="165.8" from="-40696199#1" to="519734960" departLane="best" departSpeed="max"/>
    <trip id="v_s_684" type="motorcycle" depart="167.4" from="-1424147361" to="464465162#1" departLane="best" departSpeed="max"/>
    <trip id="v_s_685" type="car" depart="169.3" from="-1424147361" to="464465162#1" departLane="best" departSpeed="max"/>
    <trip id="v_n_34" type="car" depart="173.9" from="491889865#0" to="464465162#1" departLane="best" departSpeed="max"/>
    <trip id="v_s_686" type="motorcycle" depart="175.2" from="-1424147361" to="464465162#1" departLane="best" departSpeed="max"/>
    <trip id="v_s_687" type="truck" depart="176.3" from="-1424147361" to="464465162#1" departLane="best" departSpeed="max"/>
    <trip id="v_n_35" type="car" depart="176.7" from="491889865#0" to="519734960" departLane="best" departSpeed="max"/>
    <trip id="v_w_2398" type="bus" depart="178.7" from="-40696199#1" to="688608667" departLane="best" departSpeed="max"/>
    <trip id="v_s_688" type="car" depart="180.1" from="-1424147361" to="464465162#1" departLane="best" departSpeed="max"/>
    <trip id="v_n_36" type="motorcycle" depart="181.3" from="491889865#0" to="464465162#1" departLane="best" departSpeed="max"/>
    <trip id="v_e_1818" type="car" depart="182.2" from="27994464#0" to="-27994446#0" departLane="best" departSpeed="max"/>
    <trip id="v_s_689" type="car" depart="185.2" from="-1424147361" to="464465162#1" departLane="best" departSpeed="max"/>
    <trip id="v_e_1819" type="car" depart="188.2" from="27994464#0" to="-27994446#0" departLane="best" departSpeed="max"/>
    <trip id="v_w_2399" type="motorcycle" depart="191.4" from="-40696199#1" to="688608667" departLane="best" departSpeed="max"/>
    <trip id="v_n_37" type="motorcycle" depart="191.5" from="491889865#0" to="519734960" departLane="best" departSpeed="max"/>
    <trip id="v_w_2400" type="car" depart="191.8" from="-40696199#1" to="688608667" departLane="best" departSpeed="max"/>
    <trip id="v_w_2401" type="car" depart="192.8" from="-40696199#1" to="688608667" departLane="best" departSpeed="max"/>
    <trip id="v_s_690" type="car" depart="192.9" from="-1424147361" to="688608667" departLane="best" departSpeed="max"/>
    <trip id="v_s_691" type="motorcycle" depart="195.4" from="-1424147361" to="464465162#1" departLane="best" departSpeed="max"/>
    <trip id="v_n_38" type="motorcycle" depart="197.1" from="491889865#0" to="519734960" departLane="best" departSpeed="max"/>
    <trip id="v_e_1820" type="car" depart="197.4" from="27994464#0" to="-27994446#0" departLane="best" departSpeed="max"/>
    <trip id="v_e_1821" type="car" depart="200.0" from="27994464#0" to="-27994446#0" departLane="best" departSpeed="max"/>
    <trip id="v_e_1822" type="car" depart="200.0" from="27994464#0" to="-27994446#0" departLane="best" departSpeed="max"/>
    <trip id="v_e_1823" type="car" depart="201.7" from="27994464#0" to="-27994446#0" departLane="best" departSpeed="max"/>
    <trip id="v_e_1824" type="car" depart="202.4" from="27994464#0" to="-27994446#0" departLane="best" departSpeed="max"/>
    <trip id="v_s_692" type="car" depart="206.1" from="-1424147361" to="464465162#1" departLane="best" departSpeed="max"/>
    <trip id="v_w_2402" type="truck" depart="206.1" from="-40696199#1" to="688608667" departLane="best" departSpeed="max"/>
    <trip id="v_e_1825" type="car" depart="207.0" from="27994464#0" to="-27994446#0" departLane="best" departSpeed="max"/>
    <trip id="v_e_1826" type="motorcycle" depart="207.6" from="27994464#0" to="-27994446#0" departLane="best" departSpeed="max"/>
    <trip id="v_w_2403" type="car" depart="208.4" from="-40696199#1" to="688608667" departLane="best" departSpeed="max"/>
    <trip id="v_n_39" type="car" depart="208.5" from="491889865#0" to="519734960" departLane="best" departSpeed="max"/>
    <trip id="v_s_693" type="truck" depart="208.6" from="-1424147361" to="464465162#1" departLane="best" departSpeed="max"/>
    <trip id="v_s_694" type="car" depart="209.1" from="-1424147361" to="688608667" departLane="best" departSpeed="max"/>
    <trip id="v_s_695" type="bus" depart="209.9" from="-1424147361" to="519734960" departLane="best" departSpeed="max"/>
    <trip id="v_e_1827" type="car" depart="210.3" from="27994464#0" to="-27994446#0" departLane="best" departSpeed="max"/>
    <trip id="v_s_696" type="car" depart="210.6" from="-1424147361" to="464465162#1" departLane="best" departSpeed="max"/>
    <trip id="v_n_40" type="car" depart="213.4" from="491889865#0" to="519734960" departLane="best" departSpeed="max"/>
    <trip id="v_s_697" type="motorcycle" depart="213.9" from="-1424147361" to="464465162#1" departLane="best" departSpeed="max"/>
    <trip id="v_w_2404" type="truck" depart="218.0" from="-40696199#1" to="688608667" departLane="best" departSpeed="max"/>
    <trip id="v_e_1828" type="car" depart="219.0" from="27994464#0" to="-27994446#0" departLane="best" departSpeed="max"/>
    <trip id="v_w_2405" type="car" depart="219.3" from="-40696199#1" to="688608667" departLane="best" departSpeed="max"/>
    <trip id="v_n_41" type="car" depart="220.5" from="491889865#0" to="519734960" departLane="best" departSpeed="max"/>
    <trip id="v_n_42" type="car" depart="220.7" from="491889865#0" to="519734960" departLane="best" departSpeed="max"/>
    <trip id="v_s_698" type="truck" depart="221.8" from="-1424147361" to="464465162#1" departLane="best" departSpeed="max"/>
    <trip id="v_w_2406" type="car" depart="222.1" from="-40696199#1" to="688608667" departLane="best" departSpeed="max"/>
    <trip id="v_n_43" type="bus" depart="222.2" from="491889865#0" to="519734960" departLane="best" departSpeed="max"/>
    <trip id="v_e_1829" type="motorcycle" depart="223.7" from="27994464#0" to="-27994446#0" departLane="best" departSpeed="max"/>
    <trip id="v_n_44" type="car" depart="224.2" from="491889865#0" to="464465162#1" departLane="best" departSpeed="max"/>
    <trip id="v_n_45" type="truck" depart="224.7" from="491889865#0" to="519734960" departLane="best" departSpeed="max"/>
    <trip id="v_w_2407" type="car" depart="225.0" from="-40696199#1" to="-27994446#0" departLane="best" departSpeed="max"/>
    <trip id="v_e_1830" type="motorcycle" depart="225.2" from="27994464#0" to="-27994446#0" departLane="best" departSpeed="max"/>
    <trip id="v_n_46" type="car" depart="226.2" from="491889865#0" to="519734960" departLane="best" departSpeed="max"/>
    <trip id="v_n_47" type="truck" depart="226.8" from="491889865#0" to="519734960" departLane="best" departSpeed="max"/>
    <trip id="v_s_699" type="bus" depart="227.6" from="-1424147361" to="464465162#1" departLane="best" departSpeed="max"/>
    <trip id="v_s_700" type="car" depart="227.9" from="-1424147361" to="464465162#1" departLane="best" departSpeed="max"/>
    <trip id="v_n_48" type="car" depart="228.7" from="491889865#0" to="464465162#1" departLane="best" departSpeed="max"/>
    <trip id="v_w_2408" type="car" depart="230.5" from="-40696199#1" to="688608667" departLane="best" departSpeed="max"/>
    <trip id="v_s_701" type="bus" depart="231.9" from="-1424147361" to="464465162#1" departLane="best" departSpeed="max"/>
    <trip id="v_s_702" type="bus" depart="232.6" from="-1424147361" to="464465162#1" departLane="best" departSpeed="max"/>
    <trip id="v_s_703" type="car" depart="233.6" from="-1424147361" to="464465162#1" departLane="best" departSpeed="max"/>
    <trip id="v_e_1831" type="car" depart="234.1" from="27994464#0" to="688608667" departLane="best" departSpeed="max"/>
    <trip id="v_n_49" type="car" depart="234.5" from="491889865#0" to="519734960" departLane="best" departSpeed="max"/>
    <trip id="v_s_704" type="car" depart="237.0" from="-1424147361" to="688608667" departLane="best" departSpeed="max"/>
    <trip id="v_n_50" type="truck" depart="237.2" from="491889865#0" to="688608667" departLane="best" departSpeed="max"/>
    <trip id="v_n_51" type="car" depart="239.8" from="491889865#0" to="519734960" departLane="best" departSpeed="max"/>
    <trip id="v_s_705" type="car" depart="239.9" from="-1424147361" to="464465162#1" departLane="best" departSpeed="max"/>
    <trip id="v_e_1832" type="car" depart="240.6" from="27994464#0" to="-27994446#0" departLane="best" departSpeed="max"/>
    <trip id="v_n_52" type="truck" depart="241.2" from="491889865#0" to="519734960" departLane="best" departSpeed="max"/>
    <trip id="v_s_706" type="car" depart="241.2" from="-1424147361" to="464465162#1" departLane="best" departSpeed="max"/>
    <trip id="v_e_1833" type="motorcycle" depart="242.6" from="27994464#0" to="688608667" departLane="best" departSpeed="max"/>
    <trip id="v_n_53" type="car" depart="243.0" from="491889865#0" to="519734960" departLane="best" departSpeed="max"/>
    <trip id="v_e_1834" type="car" depart="243.9" from="27994464#0" to="-27994446#0" departLane="best" departSpeed="max"/>
    <trip id="v_s_707" type="car" depart="246.3" from="-1424147361" to="464465162#1" departLane="best" departSpeed="max"/>
    <trip id="v_s_708" type="car" depart="247.0" from="-1424147361" to="464465162#1" departLane="best" departSpeed="max"/>
    <trip id="v_s_709" type="car" depart="251.4" from="-1424147361" to="464465162#1" departLane="best" departSpeed="max"/>
    <trip id="v_w_2409" type="car" depart="253.3" from="-40696199#1" to="688608667" departLane="best" departSpeed="max"/>
    <trip id="v_e_1835" type="car" depart="253.5" from="27994464#0" to="-27994446#0" departLane="best" departSpeed="max"/>
    <trip id="v_w_2410" type="car" depart="255.0" from="-40696199#1" to="688608667" departLane="best" departSpeed="max"/>
    <trip id="v_w_2411" type="car" depart="255.3" from="-40696199#1" to="688608667" departLane="best" departSpeed="max"/>
    <trip id="v_s_710" type="car" depart="255.4" from="-1424147361" to="464465162#1" departLane="best" departSpeed="max"/>
    <trip id="v_s_711" type="car" depart="258.0" from="-1424147361" to="464465162#1" departLane="best" departSpeed="max"/>
    <trip id="v_n_54" type="car" depart="258.9" from="491889865#0" to="-27994446#0" departLane="best" departSpeed="max"/>
    <trip id="v_s_712" type="truck" depart="260.0" from="-1424147361" to="464465162#1" departLane="best" departSpeed="max"/>
    <trip id="v_e_1836" type="car" depart="260.5" from="27994464#0" to="-27994446#0" departLane="best" departSpeed="max"/>
    <trip id="v_w_2412" type="car" depart="261.1" from="-40696199#1" to="688608667" departLane="best" departSpeed="max"/>
    <trip id="v_w_2413" type="truck" depart="262.4" from="-40696199#1" to="688608667" departLane="best" departSpeed="max"/>
    <trip id="v_n_55" type="car" depart="264.9" from="491889865#0" to="519734960" departLane="best" departSpeed="max"/>
    <trip id="v_s_713" type="car" depart="266.3" from="-1424147361" to="464465162#1" departLane="best" departSpeed="max"/>
    <trip id="v_w_2414" type="car" depart="267.0" from="-40696199#1" to="688608667" departLane="best" departSpeed="max"/>
    <trip id="v_s_714" type="motorcycle" depart="267.6" from="-1424147361" to="464465162#1" departLane="best" departSpeed="max"/>
    <trip id="v_n_56" type="truck" depart="270.3" from="491889865#0" to="519734960" departLane="best" departSpeed="max"/>
    <trip id="v_n_57" type="car" depart="271.4" from="491889865#0" to="519734960" departLane="best" departSpeed="max"/>
    <trip id="v_w_2415" type="car" depart="276.4" from="-40696199#1" to="688608667" departLane="best" departSpeed="max"/>
    <trip id="v_s_715" type="car" depart="277.3" from="-1424147361" to="688608667" departLane="best" departSpeed="max"/>
    <trip id="v_s_716" type="car" depart="277.4" from="-1424147361" to="464465162#1" departLane="best" departSpeed="max"/>
    <trip id="v_w_2416" type="car" depart="278.8" from="-40696199#1" to="688608667" departLane="best" departSpeed="max"/>