<?xml version="1.0" encoding="UTF-8"?>
<routes xmlns:xsi="http://www.w3.org/2001/XMLSchema-instance" xsi:noNamespaceSchemaLocation="http://sumo.dlr.de/xsd/routes_file.xsd">

    <!-- Vehicle Types -->
    <vType id="car" accel="2.6" decel="4.5" sigma="0.5" length="4.5" maxSpeed="50" guiShape="passenger"/>
    <vType id="bus" accel="1.2" decel="3.0" sigma="0.5" length="12.0" maxSpeed="30" guiShape="bus"/>
    <vType id="motorcycle" accel="4.0" decel="6.0" sigma="0.5" length="2.0" maxSpeed="60" guiShape="motorcycle"/>
    <vType id="truck" accel="1.0" decel="3.0" sigma="0.5" length="10.0" maxSpeed="25" guiShape="truck"/>
    <vType id="ambulance" accel="3.0" decel="5.0" sigma="0.3" length="5.5" maxSpeed="60" guiShape="emergency" vClass="emergency" color="1,0,0"/>

    <!-- Route Definitions for Grid Network -->
    <route id="route_north" edges="south_in south_to_center center_to_north north_out"/>
    <route id="route_south" edges="north_in north_to_center center_to_south south_out"/>
    <route id="route_east" edges="west_in west_to_center center_to_east east_out"/>
    <route id="route_west" edges="east_in east_to_center center_to_west west_out"/>

    <!-- Vehicles for Hour 8:00 (2974 total) -->
    <!-- Location: silk_board, Generated from real arrival rates -->

    <vehicle id="veh_south_600" type="motorcycle" depart="0.3" route="route_south"/>
    <vehicle id="veh_south_601" type="car" depart="1.2" route="route_south"/>
    <vehicle id="veh_south_602" type="car" depart="3.5" route="route_south"/>
    <vehicle id="veh_west_2380" type="motorcycle" depart="4.2" route="route_west"/>
    <vehicle id="veh_south_603" type="car" depart="4.6" route="route_south"/>
    <vehicle id="veh_north_1" type="car" depart="5.9" route="route_north"/>
    <vehicle id="veh_south_604" type="car" depart="5.9" route="route_south"/>
    <vehicle id="veh_north_2" type="car" depart="7.7" route="route_north"/>
    <vehicle id="veh_south_605" type="car" depart="8.1" route="route_south"/>
    <vehicle id="veh_west_2381" type="motorcycle" depart="10.2" route="route_west"/>
    <vehicle id="veh_south_606" type="truck" depart="10.3" route="route_south"/>
    <vehicle id="veh_south_607" type="bus" depart="11.6" route="route_south"/>
    <vehicle id="veh_north_3" type="car" depart="15.4" route="route_north"/>
    <vehicle id="veh_south_608" type="motorcycle" depart="16.9" route="route_south"/>
    <vehicle id="veh_south_609" type="car" depart="17.8" route="route_south"/>
    <vehicle id="veh_south_610" type="car" depart="18.4" route="route_south"/>
    <vehicle id="veh_south_611" type="car" depart="22.9" route="route_south"/>
    <vehicle id="veh_south_612" type="motorcycle" depart="23.5" route="route_south"/>
    <vehicle id="veh_west_2382" type="motorcycle" depart="23.5" route="route_west"/>
    <vehicle id="veh_west_2383" type="car" depart="23.7" route="route_west"/>
    <vehicle id="veh_south_613" type="motorcycle" depart="25.6" route="route_south"/>
    <vehicle id="veh_west_2384" type="car" depart="25.7" route="route_west"/>
    <vehicle id="veh_east_1745" type="car" depart="26.7" route="route_east"/>
    <vehicle id="veh_north_4" type="car" depart="28.2" route="route_north"/>
    <vehicle id="veh_south_614" type="car" depart="30.0" route="route_south"/>
    <vehicle id="veh_north_5" type="car" depart="31.4" route="route_north"/>
    <vehicle id="veh_north_6" type="car" depart="32.8" route="route_north"/>
    <vehicle id="veh_east_1746" type="car" depart="32.9" route="route_east"/>
    <vehicle id="veh_north_7" type="car" depart="33.0" route="route_north"/>
    <vehicle id="veh_south_615" type="car" depart="38.0" route="route_south"/>
    <vehicle id="veh_north_8" type="car" depart="39.0" route="route_north"/>
    <vehicle id="veh_west_2385" type="car" depart="39.5" route="route_west"/>
    <vehicle id="veh_west_2386" type="car" depart="40.0" route="route_west"/>
    <vehicle id="veh_north_9" type="car" depart="40.5" route="route_north"/>
    <vehicle id="veh_south_616" type="car" depart="41.1" route="route_south"/>
    <vehicle id="veh_east_1747" type="motorcycle" depart="44.3" route="route_east"/>
    <vehicle id="veh_south_617" type="car" depart="47.3" route="route_south"/>
    <vehicle id="veh_south_618" type="car" depart="47.9" route="route_south"/>
    <vehicle id="veh_south_619" type="car" depart="49.7" route="route_south"/>
    <vehicle id="veh_north_10" type="car" depart="50.0" route="route_north"/>
    <vehicle id="veh_south_620" type="car" depart="50.7" route="route_south"/>
    <vehicle id="veh_south_621" type="car" depart="52.9" route="route_south"/>
    <vehicle id="veh_south_622" type="car" depart="54.7" route="route_south"/>
    <vehicle id="veh_east_1748" type="car" depart="56.6" route="route_east"/>
    <vehicle id="veh_north_11" type="car" depart="59.5" route="route_north"/>
    <vehicle id="veh_west_2387" type="car" depart="59.6" route="route_west"/>
    <vehicle id="veh_south_623" type="car" depart="60.2" route="route_south"/>
    <vehicle id="veh_east_1749" type="car" depart="60.7" route="route_east"/>
    <vehicle id="veh_north_12" type="car" depart="61.8" route="route_north"/>
    <vehicle id="veh_west_2388" type="car" depart="65.5" route="route_west"/>
    <vehicle id="veh_south_624" type="motorcycle" depart="66.4" route="route_south"/>
    <vehicle id="veh_west_2389" type="car" depart="67.2" route="route_west"/>
    <vehicle id="veh_south_625" type="car" depart="69.4" route="route_south"/>
    <vehicle id="veh_south_626" type="car" depart="71.3" route="route_south"/>
    <vehicle id="veh_south_627" type="motorcycle" depart="76.2" route="route_south"/>
    <vehicle id="veh_south_628" type="motorcycle" depart="78.1" route="route_south"/>
    <vehicle id="veh_north_13" type="car" depart="80.0" route="route_north"/>
    <vehicle id="veh_north_14" type="car" depart="80.6" route="route_north"/>
    <vehicle id="veh_south_629" type="car" depart="81.3" route="route_south"/>
    <vehicle id="veh_east_1750" type="car" depart="82.0" route="route_east"/>
    <vehicle id="veh_south_630" type="car" depart="83.3" route="route_south"/>
    <vehicle id="veh_south_631" type="car" depart="83.5" route="route_south"/>
    <vehicle id="veh_east_1751" type="car" depart="83.5" route="route_east"/>
    <vehicle id="veh_east_1752" type="car" depart="86.6" route="route_east"/>
    <vehicle id="veh_west_2390" type="truck" depart="88.5" route="route_west"/>
    <vehicle id="veh_east_1753" type="motorcycle" depart="90.3" route="route_east"/>
    <vehicle id="veh_south_632" type="car" depart="90.6" route="route_south"/>
    <vehicle id="veh_west_2391" type="car" depart="90.9" route="route_west"/>
    <vehicle id="veh_north_15" type="car" depart="91.4" route="route_north"/>
    <vehicle id="veh_west_2392" type="car" depart="92.3" route="route_west"/>
    <vehicle id="veh_east_1754" type="motorcycle" depart="93.9" route="route_east"/>
    <vehicle id="veh_south_633" type="car" depart="94.5" route="route_south"/>
    <vehicle id="veh_south_634" type="car" depart="95.1" route="route_south"/>
    <vehicle id="veh_south_635" type="car" depart="96.9" route="route_south"/>
    <vehicle id="veh_west_2393" type="motorcycle" depart="97.0" route="route_west"/>
    <vehicle id="veh_east_1755" type="car" depart="97.5" route="route_east"/>
    <vehicle id="veh_south_636" type="car" depart="99.2" route="route_south"/>
    <vehicle id="veh_south_637" type="car" depart="100.6" route="route_south"/>
    <vehicle id="veh_north_16" type="bus" depart="100.9" route="route_north"/>
    <vehicle id="veh_east_1756" type="car" depart="101.7" route="route_east"/>
    <vehicle id="veh_south_638" type="car" depart="102.3" route="route_south"/>
    <vehicle id="veh_east_1757" type="car" depart="102.3" route="route_east"/>
    <vehicle id="veh_south_639" type="motorcycle" depart="105.1" route="route_south"/>
    <vehicle id="veh_north_17" type="truck" depart="105.3" route="route_north"/>
    <vehicle id="veh_east_1758" type="car" depart="107.3" route="route_east"/>
    <vehicle id="veh_east_1759" type="car" depart="107.8" route="route_east"/>
    <vehicle id="veh_north_18" type="car" depart="108.1" route="route_north"/>
    <vehicle id="veh_south_640" type="car" depart="108.3" route="route_south"/>
    <vehicle id="veh_south_641" type="car" depart="108.6" route="route_south"/>
    <vehicle id="veh_west_2394" type="car" depart="109.0" route="route_west"/>
    <vehicle id="veh_south_642" type="bus" depart="109.7" route="route_south"/>
    <vehicle id="veh_south_643" type="truck" depart="113.0" route="route_south"/>
    <vehicle id="veh_east_1760" type="car" depart="113.7" route="route_east"/>
    <vehicle id="veh_west_2395" type="car" depart="116.4" route="route_west"/>
    <vehicle id="veh_west_2396" type="truck" depart="117.3" route="route_west"/>
    <vehicle id="veh_east_1761" type="car" depart="118.0" route="route_east"/>
    <vehicle id="veh_north_19" type="car" depart="118.2" route="route_north"/>
    <vehicle id="veh_south_644" type="car" depart="119.4" route="route_south"/>
    <vehicle id="veh_south_645" type="car" depart="122.1" route="route_south"/>
    <vehicle id="veh_south_646" type="truck" depart="123.5" route="route_south"/>
    <vehicle id="veh_east_1762" type="truck" depart="124.7" route="route_east"/>
    <vehicle id="veh_south_647" type="car" depart="127.2" route="route_south"/>
    <vehicle id="veh_east_1763" type="car" depart="127.4" route="route_east"/>
    <vehicle id="veh_east_1764" type="car" depart="129.0" route="route_east"/>
    <vehicle id="veh_north_20" type="car" depart="129.6" route="route_north"/>
    <vehicle id="veh_south_648" type="truck" depart="130.0" route="route_south"/>
    <vehicle id="veh_south_649" type="car" depart="131.1" route="route_south"/>
    <vehicle id="veh_east_1765" type="car" depart="133.9" route="route_east"/>
    <vehicle id="veh_south_650" type="motorcycle" depart="136.0" route="route_south"/>
    <vehicle id="veh_north_21" type="car" depart="136.7" route="route_north"/>
    <vehicle id="veh_east_1766" type="car" depart="137.8" route="route_east"/>
    <vehicle id="veh_north_22" type="car" depart="138.2" route="route_north"/>
    <vehicle id="veh_north_23" type="car" depart="138.6" route="route_north"/>
    <vehicle id="veh_north_24" type="car" depart="139.2" route="route_north"/>
    <vehicle id="veh_south_651" type="motorcycle" depart="139.4" route="route_south"/>
    <vehicle id="veh_west_2397" type="car" depart="139.8" route="route_west"/>
    <vehicle id="veh_south_652" type="car" depart="143.6" route="route_south"/>
    <vehicle id="veh_north_25" type="car" depart="145.1" route="route_north"/>
    <vehicle id="veh_east_1767" type="car" depart="145.4" route="route_east"/>
    <vehicle id="veh_south_653" type="car" depart="145.9" route="route_south"/>
    <vehicle id="veh_south_654" type="car" depart="147.6" route="route_south"/>
    <vehicle id="veh_north_26" type="car" depart="147.7" route="route_north"/>
    <vehicle id="veh_south_655" type="car" depart="149.0" route="route_south"/>
    <vehicle id="veh_north_27" type="truck" depart="149.5" route="route_north"/>
    <vehicle id="veh_south_656" type="truck" depart="149.8" route="route_south"/>
    <vehicle id="veh_south_657" type="car" depart="151.8" route="route_south"/>
    <vehicle id="veh_south_658" type="car" depart="152.3" route="route_south"/>
    <vehicle id="veh_east_1768" type="car" depart="154.0" route="route_east"/>
    <vehicle id="veh_north_28" type="car" depart="155.5" route="route_north"/>
    <vehicle id="veh_west_2398" type="truck" depart="156.2" route="route_west"/>
    <vehicle id="veh_north_29" type="bus" depart="156.6" route="route_north"/>
    <vehicle id="veh_east_1769" type="motorcycle" depart="156.6" route="route_east"/>
    <vehicle id="veh_north_30" type="car" depart="157.6" route="route_north"/>
    <vehicle id="veh_south_659" type="car" depart="158.1" route="route_south"/>
    <vehicle id="veh_west_2399" type="car" depart="158.5" route="route_west"/>
    <vehicle id="veh_south_660" type="motorcycle" depart="162.6" route="route_south"/>
    <vehicle id="veh_south_661" type="car" depart="169.3" route="route_south"/>
    <vehicle id="veh_south_662" type="motorcycle" depart="170.6" route="route_south"/>
    <vehicle id="veh_south_663" type="car" depart="171.0" route="route_south"/>
    <vehicle id="veh_south_664" type="motorcycle" depart="171.6" route="route_south"/>
    <vehicle id="veh_south_665" type="motorcycle" depart="176.1" route="route_south"/>
    <vehicle id="veh_west_2400" type="car" depart="176.4" route="route_west"/>
    <vehicle id="veh_south_666" type="car" depart="176.7" route="route_south"/>
    <vehicle id="veh_east_1770" type="car" depart="176.7" route="route_east"/>
    <vehicle id="veh_south_667" type="car" depart="178.3" route="route_south"/>
    <vehicle id="veh_west_2401" type="motorcycle" depart="178.8" route="route_west"/>
    <vehicle id="veh_south_668" type="car" depart="179.2" route="route_south"/>
    <vehicle id="veh_south_669" type="bus" depart="180.2" route="route_south"/>
    <vehicle id="veh_east_1771" type="bus" depart="181.2" route="route_east"/>
    <vehicle id="veh_east_1772" type="car" depart="181.5" route="route_east"/>
    <vehicle id="veh_south_670" type="car" depart="182.1" route="route_south"/>
    <vehicle id="veh_east_1773" type="bus" depart="182.4" route="route_east"/>
    <vehicle id="veh_south_671" type="motorcycle" depart="183.2" route="route_south"/>
    <vehicle id="veh_north_31" type="car" depart="183.9" route="route_north"/>
    <vehicle id="veh_south_672" type="motorcycle" depart="185.2" route="route_south"/>
    <vehicle id="veh_south_673" type="truck" depart="186.6" route="route_south"/>
    <vehicle id="veh_west_2402" type="motorcycle" depart="186.6" route="route_west"/>
    <vehicle id="veh_north_32" type="car" depart="188.6" route="route_north"/>
    <vehicle id="veh_east_1774" type="car" depart="190.1" route="route_east"/>
    <vehicle id="veh_east_1775" type="car" depart="195.8" route="route_east"/>
    <vehicle id="veh_north_33" type="motorcycle" depart="199.3" route="route_north"/>
    <vehicle id="veh_west_2403" type="car" depart="199.4" route="route_west"/>
    <vehicle id="veh_south_674" type="car" depart="199.5" route="route_south"/>
    <vehicle id="veh_south_675" type="car" depart="200.6" route="route_south"/>
    <vehicle id="veh_north_34" type="car" depart="200.8" route="route_north"/>
    <vehicle id="veh_west_2404" type="car" depart="202.6" route="route_west"/>
    <vehicle id="veh_north_35" type="car" depart="202.9" route="route_north"/>
    <vehicle id="veh_south_676" type="truck" depart="202.9" route="route_south"/>
    <vehicle id="veh_north_36" type="truck" depart="204.3" route="route_north"/>
    <vehicle id="veh_south_677" type="motorcycle" depart="208.1" route="route_south"/>
    <vehicle id="veh_south_678" type="car" depart="208.6" route="route_south"/>
    <vehicle id="veh_south_679" type="motorcycle" depart="211.8" route="route_south"/>
    <vehicle id="veh_east_1776" type="car" depart="212.0" route="route_east"/>
    <vehicle id="veh_south_680" type="car" depart="214.3" route="route_south"/>
    <vehicle id="veh_east_1777" type="motorcycle" depart="215.6" route="route_east"/>
    <vehicle id="veh_north_37" type="car" depart="216.3" route="route_north"/>
    <vehicle id="veh_west_2405" type="motorcycle" depart="219.1" route="route_west"/>
    <vehicle id="veh_south_681" type="motorcycle" depart="220.1" route="route_south"/>
    <vehicle id="veh_south_682" type="motorcycle" depart="221.1" route="route_south"/>
    <vehicle id="veh_south_683" type="truck" depart="222.1" route="route_south"/>
    <vehicle id="veh_north_38" type="car" depart="222.5" route="route_north"/>
    <vehicle id="veh_south_684" type="car" depart="222.6" route="route_south"/>
    <vehicle id="veh_east_1778" type="car" depart="223.3" route="route_east"/>
    <vehicle id="veh_east_1779" type="truck" depart="226.5" route="route_east"/>
    <vehicle id="veh_south_685" type="car" depart="231.7" route="route_south"/>
    <vehicle id="veh_south_686" type="car" depart="233.6" route="route_south"/>
    <vehicle id="veh_south_687" type="car" depart="233.6" route="route_south"/>
    <vehicle id="veh_west_2406" type="car" depart="235.4" route="route_west"/>
    <vehicle id="veh_south_688" type="car" depart="235.8" route="route_south"/>
    <vehicle id="veh_north_39" type="car" depart="236.7" route="route_north"/>
    <vehicle id="veh_east_1780" type="car" depart="237.5" route="route_east"/>
    <vehicle id="veh_north_40" type="car" depart="238.4" route="route_north"/>
    <vehicle id="veh_north_41" type="car" depart="243.2" route="route_north"/>
    <vehicle id="veh_west_2407" type="car" depart="244.6" route="route_west"/>
    <vehicle id="veh_west_2408" type="motorcycle" depart="245.8" route="route_west"/>
    <vehicle id="veh_east_1781" type="car" depart="246.5" route="route_east"/>
    <vehicle id="veh_north_42" type="motorcycle" depart="248.2" route="route_north"/>
    <vehicle id="veh_north_43" type="car" depart="251.2" route="route_north"/>
    <vehicle id="veh_west_2409" type="car" depart="251.5" route="route_west"/>
    <vehicle id="veh_south_689" type="car" depart="252.0" route="route_south"/>
    <vehicle id="veh_south_690" type="truck" depart="252.1" route="route_south"/>
    <vehicle id="veh_east_1782" type="truck" depart="253.0" route="route_east"/>
    <vehicle id="veh_east_1783" type="car" depart="253.8" route="route_east"/>
    <vehicle id="veh_west_2410" type="car" depart="256.6" route="route_west"/>
    <vehicle id="veh_south_691" type="car" depart="257.7" route="route_south"/>
    <vehicle id="veh_west_2411" type="car" depart="258.2" route="route_west"/>
    <vehicle id="veh_east_1784" type="car" depart="258.4" route="route_east"/>
    <vehicle id="veh_west_2412" type="car" depart="260.9" route="route_west"/>
    <vehicle id="veh_south_692" type="car" depart="262.6" route="route_south"/>
    <vehicle id="veh_south_693" type="motorcycle" depart="263.6" route="route_south"/>
    <vehicle id="veh_west_2413" type="car" depart="264.8" route="route_west"/>
    <vehicle id="veh_south_694" type="car" depart="267.3" route="route_south"/>
    <vehicle id="veh_west_2414" type="bus" depart="270.4" route="route_west"/>
    <vehicle id="veh_south_695" type="car" depart="271.1" route="route_south"/>
    <vehicle id="veh_south_696" type="car" depart="271.1" route="route_south"/>
    <vehicle id="veh_south_697" type="motorcycle" depart="272.1" route="route_south"/>
    <vehicle id="veh_west_2415" type="motorcycle" depart="273.3" route="route_west"/>
    <vehicle id="veh_south_698" type="bus" depart="274.5" route="route_south"/>
    <vehicle id="veh_east_1785" type="motorcycle" depart="275.0" route="route_east"/>
    <vehicle id="veh_south_699" type="car" depart="276.8" route="route_south"/>
    <vehicle id="veh_west_2416" type="car" depart="277.3" route="route_west"/>
    <vehicle id="veh_south_700" type="car" depart="277.9" route="route_south"/>
    <vehicle id="veh_south_701" type="car" depart="278.1" route="route_south"/>
    <vehicle id="veh_west_2417" type="car" depart="278.6" route="route_west"/>
    <vehicle id="veh_east_1786" type="car" depart="279.0" route="route_east"/>
    <vehicle id="veh_south_702" type="car" depart="283.0" route="route_south"/>
    <vehicle id="veh_south_703" type="truck" depart="283.3" route="route_south"/>
    <vehicle id="veh_north_44" type="car" depart="285.8" route="route_north"/>
    <vehicle id="veh_south_704" type="car" depart="286.1" route="route_south"/>
    <vehicle id="veh_north_45" type="car" depart="286.3" route="route_north"/>
    <vehicle id="veh_north_46" type="car" depart="287.0" route="route_north"/>
    <vehicle id="veh_west_2418" type="car" depart="287.4" route="route_west"/>
    <vehicle id="veh_south_705" type="car" depart="288.4" route="route_south"/>
    <vehicle id="veh_south_706" type="car" depart="288.9" route="route_south"/>
    <vehicle id="veh_west_2419" type="car" depart="289.3" route="route_west"/>
    <vehicle id="veh_south_707" type="car" depart="291.8" route="route_south"/>
    <vehicle id="veh_south_708" type="car" depart="293.5" route="route_south"/>
    <vehicle id="veh_south_709" type="truck" depart="293.8" route="route_south"/>
    <vehicle id="veh_south_710" type="car" depart="294.0" route="route_south"/>
    <vehicle id="veh_east_1787" type="car" depart="294.3" route="route_east"/>
    <vehicle id="veh_north_47" type="car" depart="296.0" route="route_north"/>
    <vehicle id="veh_south_711" type="truck" depart="296.2" route="route_south"/>
    <vehicle id="veh_north_48" type="car" depart="296.4" route="route_north"/>
    <vehicle id="veh_west_2420" type="truck" depart="297.5" route="route_west"/>
    <vehicle id="veh_south_712" type="car" depart="298.7" route="route_south"/>
    <vehicle id="veh_east_1788" type="bus" depart="299.6" route="route_east"/>
    <vehicle id="veh_east_1789" type="car" depart="300.4" route="route_east"/>
    <vehicle id="veh_south_713" type="car" depart="300.7" route="route_south"/>
    <vehicle id="veh_east_1790" type="motorcycle" depart="305.9" route="route_east"/>
    <vehicle id="veh_west_2421" type="car" depart="306.1" route="route_west"/>
    <vehicle id="veh_east_1791" type="car" depart="310.2" route="route_east"/>
    <vehicle id="veh_south_714" type="car" depart="313.0" route="route_south"/>
    <vehicle id="veh_south_715" type="motorcycle" depart="313.0" route="route_south"/>
    <vehicle id="veh_south_716" type="bus" depart="314.3" route="route_south"/>
    <vehicle id="veh_south_717" type="motorcycle" depart="317.4" route="route_south"/>
    <vehicle id="veh_south_718" type="car" depart="321.5" route="route_south"/>
    <vehicle id="veh_south_719" type="car" depart="321.7" route="route_south"/>
    <vehicle id="veh_west_2422" type="truck" depart="321.9" route="route_west"/>
    <vehicle id="veh_south_720" type="car" depart="326.9" route="route_south"/>
    <vehicle id="veh_north_49" type="car" depart="328.4" route="route_north"/>
    <vehicle id="veh_south_721" type="car" depart="331.6" route="route_south"/>
    <vehicle id="veh_east_1792" type="truck" depart="333.7" route="route_east"/>
    <vehicle id="veh_west_2423" type="car" depart="334.1" route="route_west"/>
    <vehicle id="veh_south_722" type="car" depart="335.2" route="route_south"/>
    <vehicle id="veh_west_2424" type="car" depart="336.5" route="route_west"/>
    <vehicle id="veh_west_2425" type="car" depart="338.2" route="route_west"/>
    <vehicle id="veh_west_2426" type="bus" depart="338.5" route="route_west"/>
    <vehicle id="veh_south_723" type="car" depart="340.4" route="route_south"/>
    <vehicle id="veh_west_2427" type="car" depart="341.4" route="route_west"/>
    <vehicle id="veh_east_1793" type="car" depart="342.4" route="route_east"/>
    <vehicle id="veh_south_724" type="car" depart="345.1" route="route_south"/>
    <vehicle id="veh_south_725" type="car" depart="346.1" route="route_south"/>
    <vehicle id="veh_south_726" type="car" depart="346.8" route="route_south"/>
    <vehicle id="veh_west_2428" type="bus" depart="347.1" route="route_west"/>
    <vehicle id="veh_north_50" type="motorcycle" depart="348.8" route="route_north"/>
    <vehicle id="veh_north_51" type="bus" depart="348.9" route="route_north"/>
    <vehicle id="veh_west_2429" type="car" depart="352.5" route="route_west"/>
    <vehicle id="veh_south_727" type="car" depart="355.2" route="route_south"/>
    <vehicle id="veh_north_52" type="car" depart="355.5" route="route_north"/>
    <vehicle id="veh_north_53" type="car" depart="357.3" route="route_north"/>
    <vehicle id="veh_north_54" type="car" depart="358.0" route="route_north"/>
    <vehicle id="veh_north_55" type="truck" depart="361.4" route="route_north"/>
    <vehicle id="veh_east_1794" type="truck" depart="362.4" route="route_east"/>
    <vehicle id="veh_west_2430" type="motorcycle" depart="365.2" route="route_west"/>
    <vehicle id="veh_east_1795" type="car" depart="366.1" route="route_east"/>
    <vehicle id="veh_south_728" type="car" depart="369.3" route="route_south"/>
    <vehicle id="veh_east_1796" type="bus" depart="369.3" route="route_east"/>
    <vehicle id="veh_west_2431" type="car" depart="369.6" route="route_west"/>
    <vehicle id="veh_south_729" type="motorcycle" depart="370.2" route="route_south"/>
    <vehicle id="veh_south_730" type="car" depart="370.8" route="route_south"/>
    <vehicle id="veh_north_56" type="car" depart="373.5" route="route_north"/>
    <vehicle id="veh_south_731" type="motorcycle" depart="375.5" route="route_south"/>
    <vehicle id="veh_south_732" type="car" depart="376.8" route="route_south"/>
    <vehicle id="veh_north_57" type="car" depart="377.5" route="route_north"/>
    <vehicle id="veh_east_1797" type="car" depart="377.6" route="route_east"/>
    <vehicle id="veh_south_733" type="motorcycle" depart="378.2" route="route_south"/>
    <vehicle id="veh_west_2432" type="car" depart="380.2" route="route_west"/>
    <vehicle id="veh_south_734" type="motorcycle" depart="382.4" route="route_south"/>
    <vehicle id="veh_south_735" type="truck" depart="383.9" route="route_south"/>
    <vehicle id="veh_east_1798" type="motorcycle" depart="385.0" route="route_east"/>
    <vehicle id="veh_south_736" type="car" depart="386.1" route="route_south"/>
    <vehicle id="veh_north_58" type="motorcycle" depart="391.5" route="route_north"/>
    <vehicle id="veh_east_1799" type="truck" depart="392.5" route="route_east"/>
    <vehicle id="veh_north_59" type="car" depart="393.6" route="route_north"/>
    <vehicle id="veh_south_737" type="car" depart="394.1" route="route_south"/>
    <vehicle id="veh_east_1800" type="car" depart="398.5" route="route_east"/>
    <vehicle id="veh_north_60" type="car" depart="399.0" route="route_north"/>
    <vehicle id="veh_south_738" type="bus" depart="399.1" route="route_south"/>
    <vehicle id="veh_south_739" type="car" depart="399.3" route="route_south"/>
    <vehicle id="veh_east_1801" type="car" depart="404.5" route="route_east"/>
    <vehicle id="veh_south_740" type="car" depart="404.7" route="route_south"/>
    <vehicle id="veh_south_741" type="car" depart="405.9" route="route_south"/>
    <vehicle id="veh_east_1802" type="car" depart="407.0" route="route_east"/>
    <vehicle id="veh_north_61" type="car" depart="407.2" route="route_north"/>
    <vehicle id="veh_south_742" type="car" depart="409.3" route="route_south"/>
    <vehicle id="veh_south_743" type="car" depart="412.1" route="route_south"/>
    <vehicle id="veh_west_2433" type="car" depart="413.4" route="route_west"/>
    <vehicle id="veh_south_744" type="car" depart="415.8" route="route_south"/>
    <vehicle id="veh_north_62" type="car" depart="415.9" route="route_north"/>
    <vehicle id="veh_north_63" type="car" depart="415.9" route="route_north"/>
    <vehicle id="veh_south_745" type="motorcycle" depart="415.9" route="route_south"/>
    <vehicle id="veh_north_64" type="truck" depart="416.0" route="route_north"/>
    <vehicle id="veh_west_2434" type="bus" depart="416.4" route="route_west"/>
    <vehicle id="veh_south_746" type="truck" depart="417.2" route="route_south"/>
    <vehicle id="veh_south_747" type="truck" depart="418.2" route="route_south"/>
    <vehicle id="veh_west_2435" type="car" depart="421.4" route="route_west"/>
    <vehicle id="veh_south_748" type="car" depart="427.4" route="route_south"/>
    <vehicle id="veh_west_2436" type="car" depart="427.4" route="route_west"/>
    <vehicle id="veh_north_65" type="motorcycle" depart="428.2" route="route_north"/>
    <vehicle id="veh_west_2437" type="car" depart="429.5" route="route_west"/>
    <vehicle id="veh_north_66" type="car" depart="430.3" route="route_north"/>
    <vehicle id="veh_south_749" type="car" depart="430.5" route="route_south"/>
    <vehicle id="veh_east_1803" type="car" depart="431.1" route="route_east"/>
    <vehicle id="veh_west_2438" type="motorcycle" depart="431.7" route="route_west"/>
    <vehicle id="veh_west_2439" type="car" depart="435.4" route="route_west"/>
    <vehicle id="veh_south_750" type="car" depart="435.6" route="route_south"/>
    <vehicle id="veh_west_2440" type="car" depart="441.2" route="route_west"/>
    <vehicle id="veh_north_67" type="truck" depart="442.4" route="route_north"/>
    <vehicle id="veh_north_68" type="car" depart="443.0" route="route_north"/>
    <vehicle id="veh_north_69" type="motorcycle" depart="443.4" route="route_north"/>
    <vehicle id="veh_south_751" type="car" depart="445.0" route="route_south"/>
    <vehicle id="veh_west_2441" type="car" depart="445.6" route="route_west"/>
    <vehicle id="veh_south_752" type="motorcycle" depart="447.9" route="route_south"/>
    <vehicle id="veh_south_753" type="car" depart="448.0" route="route_south"/>
    <vehicle id="veh_east_1804" type="car" depart="450.3" route="route_east"/>
    <vehicle id="veh_north_70" type="car" depart="451.7" route="route_north"/>
    <vehicle id="veh_south_754" type="car" depart="452.7" route="route_south"/>
    <vehicle id="veh_south_755" type="car" depart="454.2" route="route_south"/>
    <vehicle id="veh_north_71" type="car" depart="455.4" route="route_north"/>
    <vehicle id="veh_west_2442" type="car" depart="456.3" route="route_west"/>
    <vehicle id="veh_south_756" type="car" depart="457.1" route="route_south"/>
    <vehicle id="veh_north_72" type="motorcycle" depart="457.2" route="route_north"/>
    <vehicle id="veh_east_1805" type="car" depart="457.5" route="route_east"/>
    <vehicle id="veh_east_1806" type="car" depart="458.2" route="route_east"/>
    <vehicle id="veh_north_73" type="car" depart="460.4" route="route_north"/>
    <vehicle id="veh_east_1807" type="car" depart="462.2" route="route_east"/>