<?xml version="1.0" encoding="UTF-8"?>

<!-- generated on 2025-12-26 23:17:22 by Eclipse SUMO netconvert Version 1.18.0
<configuration xmlns:xsi="http://www.w3.org/2001/XMLSchema-instance" xsi:noNamespaceSchemaLocation="http://sumo.dlr.de/xsd/netconvertConfiguration.xsd">

    <input>
        <osm-files value="app/sumo/network/silk_board.osm"/>
    </input>

    <output>
        <output-file value="app/sumo/network/silk_board.net.xml"/>
    </output>

    <projection>
        <proj.utm value="true"/>
    </projection>

    <processing>
        <geometry.remove value="true"/>
        <roundabouts.guess value="true"/>
    </processing>

    <tls_building>
        <tls.discard-simple value="false"/>
        <tls.guess value="true"/>
        <tls.guess.threshold value="9"/>
        <tls.join value="true"/>
        <tls.join-dist value="60"/>
        <tls.default-type value="static"/>
    </tls_building>

    <ramp_guessing>
        <ramps.guess value="true"/>
    </ramp_guessing>

    <edge_removal>
        <keep-edges.by-vclass value="passenger,bus,taxi,delivery"/>
        <remove-edges.isolated value="true"/>
    </edge_removal>

    <junctions>
        <no-turnarounds value="true"/>
        <junctions.join value="true"/>
    </junctions>

</configuration>
-->

<net version="1.16" junctionCornerDetail="5" limitTurnSpeed="5.50" xmlns:xsi="http://www.w3.org/2001/XMLSchema-instance" xsi:noNamespaceSchemaLocation="http://sumo.dlr.de/xsd/net_file.xsd">

    <location netOffset="-782235.55,-1429076.98" convBoundary="0.00,0.00,2358.52,767.57" origBoundary="77.580048,12.914005,77.626947,12.921860" projParameter="+proj=utm +zone=43 +ellps=WGS84 +datum=WGS84 +units=m +no_defs"/>

    <type id="highway.living_street" priority="2" numLanes="1" speed="2.78" disallow="tram rail_urban rail rail_electric rail_fast ship" oneway="0"/>
    <type id="highway.primary" priority="12" numLanes="2" speed="27.78" disallow="tram rail_urban rail rail_electric rail_fast ship" oneway="0"/>
    <type id="highway.primary_link" priority="7" numLanes="1" speed="22.22" disallow="tram rail_urban rail rail_electric rail_fast ship" oneway="0"/>
    <type id="highway.residential" priority="3" numLanes="1" speed="13.89" disallow="tram rail_urban rail rail_electric rail_fast ship" oneway="0"/>
    <type id="highway.service" priority="1" numLanes="1" speed="5.56" allow="pedestrian delivery bicycle" oneway="0"/>
    <type id="highway.tertiary" priority="10" numLanes="1" speed="22.22" disallow="tram rail_urban rail rail_electric rail_fast ship" oneway="0"/>
    <type id="highway.trunk" priority="13" numLanes="2" speed="27.78" disallow="pedestrian bicycle tram rail_urban rail rail_electric rail_fast ship" oneway="0"/>
    <type id="highway.trunk_link" priority="8" numLanes="1" speed="22.22" disallow="pedestrian bicycle tram rail_urban rail rail_electric rail_fast ship" oneway="0"/>

    <edge id=":10095107480_0" function="internal">
        <lane id=":10095107480_0_0" index="0" disallow="pedestrian bicycle tram rail_urban rail rail_electric rail_fast ship" speed="13.89" length="7.96" shape="1763.94,237.40 1756.01,236.67"/>
    </edge>
    <edge id=":10095107480_1" function="internal">
        <lane id=":10095107480_1_0" index="0" disallow="pedestrian bicycle tram rail_urban rail rail_electric rail_fast ship" speed="7.76" length="7.35" shape="1761.99,232.90 1760.50,234.62 1759.01,235.82 1757.51,236.50 1756.01,236.67"/>
    </edge>
    <edge id=":10097182475_0" function="internal">
        <lane id=":10097182475_0_0" index="0" disallow="pedestrian bicycle tram rail_urban rail rail_electric rail_fast ship" speed="16.67" length="9.16" shape="2219.91,316.87 2222.89,316.87 2224.96,316.74 2226.98,316.85 2229.81,317.58"/>
        <lane id=":10097182475_0_1" index="1" disallow="pedestrian bicycle tram rail_urban rail rail_electric rail_fast ship" speed="16.67" length="9.16" shape="2219.74,320.06 2222.46,320.05 2224.35,319.90 2226.20,319.96 2228.80,320.62"/>
        <lane id=":10097182475_0_2" index="2" disallow="pedestrian bicycle tram rail_urban rail rail_electric rail_fast ship" speed="16.67" length="9.16" shape="2219.56,323.26 2222.03,323.23 2223.75,323.05 2225.43,323.07 2227.79,323.65"/>
    </edge>
    <edge id=":10097182475_3" function="internal">
        <lane id=":10097182475_3_0" index="0" disallow="pedestrian bicycle tram rail_urban rail rail_electric rail_fast ship" speed="10.82" length="6.03" shape="2219.97,326.89 2221.96,326.31 2223.39,326.03 2224.81,326.13 2226.78,326.69"/>
        <lane id=":10097182475_3_1" index="1" disallow="pedestrian bicycle tram rail_urban rail rail_electric rail_fast ship" speed="9.26" length="6.03" shape="2220.86,329.97 2222.29,329.53 2223.32,329.30 2224.35,329.34 2225.77,329.72"/>
    </edge>
    <edge id=":11384916085_0" function="internal">
        <lane id=":11384916085_0_0" index="0" allow="pedestrian delivery bicycle" speed="4.93" length="5.13" shape="2186.28,458.22 2185.88,456.85 2185.13,455.98 2184.05,455.63 2182.63,455.78"/>
    </edge>
    <edge id=":11384916085_1" function="internal">
        <lane id=":11384916085_1_0" index="0" allow="pedestrian delivery bicycle" speed="7.16" length="10.23" shape="2186.28,458.22 2186.23,455.31 2186.99,453.03 2188.58,451.37 2190.98,450.34"/>
    </edge>
    <edge id=":11384916085_2" function="internal">
        <lane id=":11384916085_2_0" index="0" allow="pedestrian delivery bicycle" speed="5.43" length="5.47" shape="2191.78,453.44 2190.56,453.98 2189.77,454.88 2189.40,456.15 2189.45,457.77"/>
    </edge>
    <edge id=":11384916085_3" function="internal">
        <lane id=":11384916085_3_0" index="0" disallow="tram rail_urban rail rail_electric rail_fast ship" speed="22.22" length="9.44" shape="2191.78,453.44 2182.63,455.78"/>
    </edge>
    <edge id=":11384916085_4" function="internal">
        <lane id=":11384916085_4_0" index="0" disallow="tram rail_urban rail rail_electric rail_fast ship" speed="22.22" length="9.44" shape="2181.84,452.68 2190.98,450.34"/>
    </edge>
    <edge id=":11384916085_5" function="internal">
        <lane id=":11384916085_5_0" index="0" allow="pedestrian delivery bicycle" speed="6.78" length="3.36" shape="2181.84,452.68 2184.80,452.36 2185.16,452.48"/>
    </edge>
    <edge id=":11384916085_6" function="internal">
        <lane id=":11384916085_6_0" index="0" allow="pedestrian delivery bicycle" speed="6.78" length="7.35" shape="2185.16,452.48 2187.06,453.10 2188.61,454.91 2189.45,457.77"/>
    </edge>
    <edge id=":11384921142_0" function="internal">
        <lane id=":11384921142_0_0" index="0" allow="pedestrian delivery bicycle" speed="5.00" length="5.04" shape="1996.11,540.74 1995.81,539.38 1995.14,538.46 1994.12,537.98 1992.73,537.93"/>
    </edge>
    <edge id=":11384921142_1" function="internal">
        <lane id=":11384921142_1_0" index="0" allow="pedestrian delivery bicycle" speed="6.95" length="10.17" shape="1996.11,540.74 1996.28,537.92 1997.28,535.81 1999.09,534.41 2001.73,533.72"/>
    </edge>
    <edge id=":11384921142_2" function="internal">
        <lane id=":11384921142_2_0" index="0" allow="pedestrian delivery bicycle" speed="5.16" length="5.14" shape="2002.08,536.90 2000.77,537.25 1999.87,537.97 1999.38,539.05 1999.30,540.50"/>
    </edge>
    <edge id=":11384921142_3" function="internal">
        <lane id=":11384921142_3_0" index="0" disallow="tram rail_urban rail rail_electric rail_fast ship" speed="13.89" length="9.40" shape="2002.08,536.90 1992.73,537.93"/>
    </edge>
    <edge id=":11384921142_4" function="internal">
        <lane id=":11384921142_4_0" index="0" disallow="tram rail_urban rail rail_electric rail_fast ship" speed="13.89" length="9.40" shape="1992.38,534.75 2001.73,533.72"/>
    </edge>
    <edge id=":11384921142_5" function="internal">
        <lane id=":11384921142_5_0" index="0" allow="pedestrian delivery bicycle" speed="6.83" length="3.29" shape="1992.38,534.75 1995.23,534.85 1995.63,535.04"/>
    </edge>
    <edge id=":11384921142_6" function="internal">
        <lane id=":11384921142_6_0" index="0" allow="pedestrian delivery bicycle" speed="6.83" length="7.04" shape="1995.63,535.04 1997.33,535.84 1998.68,537.72 1999.30,540.50"/>
    </edge>
    <edge id=":12040966310_0" function="internal">
        <lane id=":12040966310_0_0" index="0" disallow="tram rail_urban rail rail_electric rail_fast ship" speed="11.11" length="22.09" shape="2218.82,503.08 2218.34,509.22 2217.58,513.72 2217.55,518.19 2219.27,524.24"/>
        <lane id=":12040966310_0_1" index="1" disallow="tram rail_urban rail rail_electric rail_fast ship" speed="11.11" length="22.09" shape="2215.62,503.05 2215.14,509.30 2214.41,514.08 2214.45,518.94 2216.29,525.42"/>
    </edge>
    <edge id=":12040966310_2" function="internal">
        <lane id=":12040966310_2_0" index="0" disallow="pedestrian tram rail_urban rail rail_electric rail_fast ship" speed="11.11" length="23.72" shape="2212.18,503.42 2211.90,509.74 2211.27,514.71 2211.38,519.82 2213.31,526.59"/>
        <lane id=":12040966310_2_1" index="1" disallow="pedestrian tram rail_urban rail rail_electric rail_fast ship" speed="11.11" length="23.72" shape="2209.00,504.14 2208.74,510.50 2208.16,515.58 2208.34,520.84 2210.34,527.77"/>
    </edge>
    <edge id=":12041127738_0" function="internal">
        <lane id=":12041127738_0_0" index="0" disallow="pedestrian tram rail_urban rail rail_electric rail_fast ship" speed="11.11" length="0.21" shape="2122.10,329.99 2122.17,330.08"/>
        <lane id=":12041127738_0_1" index="1" disallow="pedestrian tram rail_urban rail rail_electric rail_fast ship" speed="11.11" length="0.21" shape="2119.56,331.94 2119.77,332.19"/>
    </edge>
    <edge id=":12273334034_0" function="internal">
        <lane id=":12273334034_0_0" index="0" disallow="pedestrian bicycle tram rail_urban rail rail_electric rail_fast ship" speed="13.89" length="7.95" shape="2032.18,251.74 2024.42,250.02"/>
    </edge>
    <edge id=":12273334034_1" function="internal">
        <lane id=":12273334034_1_0" index="0" disallow="pedestrian bicycle tram rail_urban rail rail_electric rail_fast ship" speed="10.29" length="7.89" shape="2032.18,251.74 2030.07,251.00 2028.86,249.98 2027.91,248.56 2026.58,246.61"/>
    </edge>
    <edge id=":12273334035_0" function="internal">
        <lane id=":12273334035_0_0" index="0" disallow="pedestrian bicycle tram rail_urban rail rail_electric rail_fast ship" speed="6.99" length="4.78" shape="2020.95,239.27 2020.12,238.38 2019.16,237.72 2018.07,237.29 2016.87,237.09"/>
    </edge>
    <edge id=":12273334035_1" function="internal">
        <lane id=":12273334035_1_0" index="0" disallow="tram rail_urban rail rail_electric rail_fast ship" speed="8.33" length="5.09" shape="2022.14,234.22 2017.07,233.90"/>
    </edge>
    <edge id=":12695683918_0" function="internal">
        <lane id=":12695683918_0_0" index="0" disallow="pedestrian bicycle tram rail_urban rail rail_electric rail_fast ship" speed="16.67" length="6.70" shape="2050.48,271.13 2052.52,271.54 2053.91,271.87 2055.28,272.26 2057.27,272.85"/>
        <lane id=":12695683918_0_1" index="1" disallow="pedestrian bicycle tram rail_urban rail rail_electric rail_fast ship" speed="16.67" length="6.70" shape="2049.87,274.27 2051.82,274.66 2053.15,274.98 2054.46,275.35 2056.37,275.92"/>
        <lane id=":12695683918_0_2" index="2" disallow="pedestrian bicycle tram rail_urban rail rail_electric rail_fast ship" speed="16.67" length="6.70" shape="2049.27,277.42 2051.13,277.79 2052.39,278.09 2053.64,278.45 2055.46,278.99"/>
    </edge>
    <edge id=":12695683918_3" function="internal">
        <lane id=":12695683918_3_0" index="0" allow="delivery" speed="5.33" length="5.32" shape="2049.27,277.42 2050.52,277.88 2051.36,278.70 2051.80,279.88 2051.83,281.43"/>
    </edge>
    <edge id=":12695683928_0" function="internal">
        <lane id=":12695683928_0_0" index="0" disallow="pedestrian bicycle tram rail_urban rail rail_electric rail_fast ship" speed="16.67" length="6.25" shape="2065.41,275.25 2071.41,277.02"/>
        <lane id=":12695683928_0_1" index="1" disallow="pedestrian bicycle tram rail_urban rail rail_electric rail_fast ship" speed="16.67" length="6.25" shape="2064.51,278.32 2070.51,280.09"/>
        <lane id=":12695683928_0_2" index="2" disallow="pedestrian bicycle tram rail_urban rail rail_electric rail_fast ship" speed="16.67" length="6.25" shape="2063.60,281.39 2069.60,283.16"/>
    </edge>
    <edge id=":12695683928_3" function="internal">
        <lane id=":12695683928_3_0" index="0" allow="delivery" speed="6.85" length="7.59" shape="2065.28,285.36 2067.10,282.92 2068.58,281.22 2069.71,280.28 2070.51,280.09"/>
        <lane id=":12695683928_3_1" index="1" allow="delivery" speed="5.79" length="5.19" shape="2065.28,285.36 2066.31,284.14 2067.37,283.37 2068.47,283.04 2069.60,283.16"/>
    </edge>
    <edge id=":243553545#1-AddedOnRampNode_0" function="internal">
        <lane id=":243553545#1-AddedOnRampNode_0_0" index="0" disallow="tram rail_urban rail rail_electric rail_fast ship" speed="8.33" length="4.33" shape="1923.80,227.93 1919.49,227.65"/>
    </edge>
    <edge id=":2509423116_0" function="internal">
        <lane id=":2509423116_0_0" index="0" disallow="tram rail_urban rail rail_electric rail_fast ship" speed="7.51" length="10.97" shape="1914.62,233.81 1913.84,230.98 1912.34,228.95 1910.12,227.70 1907.19,227.25"/>
    </edge>
    <edge id=":2509423116_1" function="internal">
        <lane id=":2509423116_1_0" index="0" disallow="tram rail_urban rail rail_electric rail_fast ship" speed="13.89" length="12.92" shape="1914.62,233.81 1914.07,230.43 1913.36,227.48 1912.41,224.60 1911.14,221.41"/>
    </edge>
    <edge id=":2509423116_2" function="internal">
        <lane id=":2509423116_2_0" index="0" disallow="tram rail_urban rail rail_electric rail_fast ship" speed="5.34" length="6.59" shape="1919.29,227.64 1918.34,227.95 1917.78,229.01 1917.60,230.82 1917.79,233.39"/>
    </edge>
    <edge id=":2509423116_3" function="internal">
        <lane id=":2509423116_3_0" index="0" disallow="tram rail_urban rail rail_electric rail_fast ship" speed="8.33" length="12.10" shape="1919.29,227.64 1907.19,227.25"/>
    </edge>
    <edge id=":2509423116_4" function="internal">
        <lane id=":2509423116_4_0" index="0" disallow="tram rail_urban rail rail_electric rail_fast ship" speed="8.65" length="10.84" shape="1919.29,227.64 1916.65,227.12 1914.41,225.90 1912.57,224.00 1911.14,221.41"/>
    </edge>
    <edge id=":2509423116_5" function="internal">
        <lane id=":2509423116_5_0" index="0" disallow="tram rail_urban rail rail_electric rail_fast ship" speed="13.89" length="13.78" shape="1914.09,220.17 1915.39,223.48 1916.42,226.65 1917.21,229.88 1917.79,233.39"/>
    </edge>
    <edge id=":2509423116_6" function="internal">
        <lane id=":2509423116_6_0" index="0" disallow="tram rail_urban rail rail_electric rail_fast ship" speed="6.70" length="3.24" shape="1914.09,220.17 1914.80,223.33"/>
    </edge>
    <edge id=":2509423116_7" function="internal">
        <lane id=":2509423116_7_0" index="0" disallow="tram rail_urban rail rail_electric rail_fast ship" speed="6.70" length="9.45" shape="1914.80,223.33 1913.89,225.57 1911.35,226.87 1907.19,227.25"/>
    </edge>
    <edge id=":2509423118_0" function="internal">
        <lane id=":2509423118_0_0" index="0" disallow="tram rail_urban rail rail_electric rail_fast ship" speed="6.63" length="8.74" shape="2057.02,241.54 2056.61,239.29 2055.54,237.63 2053.80,236.57 2051.41,236.10"/>
    </edge>
    <edge id=":2509423118_1" function="internal">
        <lane id=":2509423118_1_0" index="0" disallow="tram rail_urban rail rail_electric rail_fast ship" speed="18.05" length="10.56" shape="2057.02,241.54 2056.50,231.00"/>
    </edge>
    <edge id=":2509423118_2" function="internal">
        <lane id=":2509423118_2_0" index="0" disallow="tram rail_urban rail rail_electric rail_fast ship" speed="18.05" length="10.67" shape="2059.69,230.79 2060.22,241.44"/>
    </edge>
    <edge id=":2509423118_3" function="internal">
        <lane id=":2509423118_3_0" index="0" disallow="tram rail_urban rail rail_electric rail_fast ship" speed="6.93" length="2.69" shape="2059.69,230.79 2059.32,233.32 2059.24,233.41"/>
    </edge>
    <edge id=":2509423118_4" function="internal">
        <lane id=":2509423118_4_0" index="0" disallow="tram rail_urban rail rail_electric rail_fast ship" speed="6.93" length="8.73" shape="2059.24,233.41 2057.81,235.05 2055.18,235.97 2051.41,236.10"/>
    </edge>
    <edge id=":2509423123_0" function="internal">
        <lane id=":2509423123_0_0" index="0" disallow="pedestrian bicycle tram rail_urban rail rail_electric rail_fast ship" speed="13.89" length="9.49" shape="1921.92,242.61 1912.43,242.59"/>
    </edge>
    <edge id=":2509423123_1" function="internal">
        <lane id=":2509423123_1_0" index="0" disallow="pedestrian bicycle tram rail_urban rail rail_electric rail_fast ship" speed="6.45" length="8.04" shape="1921.92,242.61 1919.20,242.43 1917.20,241.82 1915.91,240.78 1915.34,239.32"/>
    </edge>
    <edge id=":2509423123_2" function="internal">
        <lane id=":2509423123_2_0" index="0" disallow="pedestrian bicycle tram rail_urban rail rail_electric rail_fast ship" speed="5.95" length="8.18" shape="1918.51,238.90 1918.32,240.55 1917.24,241.71 1915.27,242.39 1912.43,242.59"/>
    </edge>
    <edge id=":2619300333_0" function="internal">
        <lane id=":2619300333_0_0" index="0" disallow="tram rail_urban rail rail_electric rail_fast ship" speed="22.22" length="10.25" shape="2170.43,458.91 2167.52,459.65 2165.45,460.10 2163.35,460.40 2160.36,460.69"/>
    </edge>
    <edge id=":2619300333_1" function="internal">
        <lane id=":2619300333_1_0" index="0" allow="pedestrian delivery bicycle" speed="6.73" length="3.49" shape="2170.43,458.91 2167.30,459.25 2166.98,459.14"/>
    </edge>
    <edge id=":2619300333_6" function="internal">
        <lane id=":2619300333_6_0" index="0" allow="pedestrian delivery bicycle" speed="6.73" length="7.68" shape="2166.98,459.14 2165.00,458.45 2163.54,456.50 2162.91,453.42"/>
    </edge>
    <edge id=":2619300333_2" function="internal">
        <lane id=":2619300333_2_0" index="0" allow="pedestrian delivery bicycle" speed="4.86" length="5.25" shape="2166.10,453.23 2166.40,454.68 2167.09,455.59 2168.17,455.97 2169.64,455.81"/>
    </edge>
    <edge id=":2619300333_3" function="internal">
        <lane id=":2619300333_3_0" index="0" allow="pedestrian delivery bicycle" speed="7.08" length="10.66" shape="2166.10,453.23 2165.90,456.29 2164.87,458.56 2163.02,460.02 2160.36,460.69"/>
    </edge>
    <edge id=":2619300333_4" function="internal">
        <lane id=":2619300333_4_0" index="0" allow="pedestrian delivery bicycle" speed="5.34" length="5.61" shape="2160.09,457.50 2161.41,457.15 2162.32,456.35 2162.82,455.10 2162.91,453.42"/>
    </edge>
    <edge id=":2619300333_5" function="internal">
        <lane id=":2619300333_5_0" index="0" disallow="tram rail_urban rail rail_electric rail_fast ship" speed="22.22" length="9.72" shape="2160.09,457.50 2162.96,457.23 2164.91,456.95 2166.84,456.52 2169.64,455.81"/>
    </edge>
    <edge id=":307407783_0" function="internal">
        <lane id=":307407783_0_0" index="0" disallow="pedestrian bicycle tram rail_urban rail rail_electric rail_fast ship" speed="8.53" length="21.09" shape="2084.96,297.53 2085.22,291.84 2087.58,288.39 2092.02,287.16 2098.55,288.16"/>
        <lane id=":307407783_0_1" index="1" disallow="pedestrian bicycle tram rail_urban rail rail_electric rail_fast ship" speed="7.88" length="17.78" shape="2084.96,297.53 2085.31,293.32 2087.54,290.87 2091.65,290.17 2097.63,291.23"/>
    </edge>
    <edge id=":307407783_2" function="internal">
        <lane id=":307407783_2_0" index="0" disallow="tram rail_urban rail rail_electric rail_fast ship" speed="7.71" length="18.63" shape="2084.96,297.53 2085.22,292.66 2087.38,290.10 2091.45,289.86 2097.41,291.93"/>
    </edge>
    <edge id=":307407783_3" function="internal">
        <lane id=":307407783_3_0" index="0" disallow="tram rail_urban rail rail_electric rail_fast ship" speed="6.43" length="15.71" shape="2084.96,297.53 2084.90,292.80 2086.18,291.13 2088.77,292.52 2092.70,296.96"/>
    </edge>
    <edge id=":307407783_4" function="internal">
        <lane id=":307407783_4_0" index="0" disallow="pedestrian bicycle tram rail_urban rail rail_electric rail_fast ship" speed="16.67" length="17.06" shape="2083.15,280.49 2099.46,285.09"/>
        <lane id=":307407783_4_1" index="1" disallow="pedestrian bicycle tram rail_urban rail rail_electric rail_fast ship" speed="16.67" length="17.06" shape="2082.24,283.56 2098.55,288.16"/>
        <lane id=":307407783_4_2" index="2" disallow="pedestrian bicycle tram rail_urban rail rail_electric rail_fast ship" speed="16.67" length="17.06" shape="2082.24,283.56 2086.96,285.46 2089.92,287.44 2092.89,289.39 2097.63,291.23"/>
    </edge>
    <edge id=":307407783_7" function="internal">
        <lane id=":307407783_7_0" index="0" disallow="pedestrian bicycle tram rail_urban rail rail_electric rail_fast ship" speed="19.44" length="16.98" shape="2082.24,283.56 2087.11,284.89 2090.46,285.75 2093.73,286.83 2098.34,288.83"/>
    </edge>
    <edge id=":307407783_8" function="internal">
        <lane id=":307407783_8_0" index="0" disallow="pedestrian bicycle tram rail_urban rail rail_electric rail_fast ship" speed="13.89" length="16.72" shape="2081.34,286.63 2086.10,288.00 2089.35,289.27 2092.07,291.31 2095.24,295.01"/>
    </edge>
    <edge id=":307407783_9" function="internal">
        <lane id=":307407783_9_0" index="0" disallow="pedestrian bicycle tram rail_urban rail rail_electric rail_fast ship" speed="9.22" length="13.31" shape="2081.34,286.63 2083.93,287.93 2085.93,290.12 2087.33,293.20 2088.14,297.17"/>
    </edge>
    <edge id=":307407794_0" function="internal">
        <lane id=":307407794_0_0" index="0" disallow="tram rail_urban rail rail_electric rail_fast ship" speed="13.89" length="15.31" shape="2131.79,611.92 2118.96,620.27"/>
    </edge>
    <edge id=":307407794_1" function="internal">
        <lane id=":307407794_1_0" index="0" disallow="tram rail_urban rail rail_electric rail_fast ship" speed="7.43" length="4.90" shape="2131.79,611.92 2127.38,614.07"/>
    </edge>
    <edge id=":307407794_6" function="internal">
        <lane id=":307407794_6_0" index="0" disallow="tram rail_urban rail rail_electric rail_fast ship" speed="7.43" length="11.58" shape="2127.38,614.07 2124.05,613.91 2121.78,611.47 2120.57,606.72"/>
    </edge>
    <edge id=":307407794_2" function="internal">
        <lane id=":307407794_2_0" index="0" disallow="tram rail_urban rail rail_electric rail_fast ship" speed="5.72" length="9.19" shape="2123.75,606.36 2124.42,609.00 2125.69,610.37 2127.55,610.46 2130.01,609.26"/>
    </edge>
    <edge id=":307407794_3" function="internal">
        <lane id=":307407794_3_0" index="0" disallow="tram rail_urban rail rail_electric rail_fast ship" speed="10.17" length="15.54" shape="2123.75,606.36 2123.89,611.05 2123.13,614.93 2121.49,618.01 2118.96,620.27"/>
    </edge>
    <edge id=":307407794_4" function="internal">
        <lane id=":307407794_4_0" index="0" disallow="tram rail_urban rail rail_electric rail_fast ship" speed="8.97" length="11.94" shape="2117.26,617.56 2119.06,615.89 2120.21,613.52 2120.71,610.46 2120.57,606.72"/>
    </edge>
    <edge id=":307407794_5" function="internal">
        <lane id=":307407794_5_0" index="0" disallow="tram rail_urban rail rail_electric rail_fast ship" speed="13.89" length="15.22" shape="2117.26,617.56 2130.01,609.26"/>
    </edge>
    <edge id=":307407835_0" function="internal">
        <lane id=":307407835_0_0" index="0" disallow="tram rail_urban rail rail_electric rail_fast ship" speed="13.89" length="13.57" shape="1940.21,351.03 1936.75,351.73 1933.59,352.51 1930.47,353.45 1927.16,354.66"/>
    </edge>
    <edge id=":307407835_1" function="internal">
        <lane id=":307407835_1_0" index="0" disallow="tram rail_urban rail rail_electric rail_fast ship" speed="7.87" length="4.02" shape="1940.21,351.03 1936.20,351.19"/>
    </edge>
    <edge id=":307407835_6" function="internal">
        <lane id=":307407835_6_0" index="0" disallow="tram rail_urban rail rail_electric rail_fast ship" speed="7.87" length="10.48" shape="1936.20,351.19 1933.19,350.01 1931.19,347.47 1930.20,343.57"/>
    </edge>
    <edge id=":307407835_2" function="internal">
        <lane id=":307407835_2_0" index="0" disallow="tram rail_urban rail rail_electric rail_fast ship" speed="6.34" length="9.04" shape="1933.38,343.24 1934.00,345.66 1935.25,347.25 1937.12,347.99 1939.62,347.88"/>
    </edge>
    <edge id=":307407835_3" function="internal">
        <lane id=":307407835_3_0" index="0" disallow="tram rail_urban rail rail_electric rail_fast ship" speed="8.88" length="14.11" shape="1933.38,343.24 1933.34,347.19 1932.29,350.41 1930.23,352.90 1927.16,354.66"/>
    </edge>
    <edge id=":307407835_4" function="internal">
        <lane id=":307407835_4_0" index="0" disallow="tram rail_urban rail rail_electric rail_fast ship" speed="7.52" length="9.89" shape="1926.00,351.68 1928.08,350.46 1929.48,348.70 1930.19,346.41 1930.20,343.57"/>
    </edge>
    <edge id=":307407835_5" function="internal">
        <lane id=":307407835_5_0" index="0" disallow="tram rail_urban rail rail_electric rail_fast ship" speed="13.89" length="14.17" shape="1926.00,351.68 1929.40,350.45 1932.71,349.44 1936.08,348.61 1939.62,347.88"/>
    </edge>
    <edge id=":307407844_0" function="internal">
        <lane id=":307407844_0_0" index="0" disallow="tram rail_urban rail rail_electric rail_fast ship" speed="6.55" length="9.08" shape="2089.55,337.25 2088.91,334.86 2087.65,333.24 2085.78,332.39 2083.28,332.31"/>
    </edge>
    <edge id=":307407844_1" function="internal">
        <lane id=":307407844_1_0" index="0" disallow="tram rail_urban rail rail_electric rail_fast ship" speed="13.89" length="14.39" shape="2089.55,337.25 2087.87,322.95"/>
    </edge>
    <edge id=":307407844_2" function="internal">
        <lane id=":307407844_2_0" index="0" disallow="tram rail_urban rail rail_electric rail_fast ship" speed="13.89" length="14.37" shape="2091.05,322.59 2092.73,336.86"/>
    </edge>
    <edge id=":307407844_3" function="internal">
        <lane id=":307407844_3_0" index="0" disallow="tram rail_urban rail rail_electric rail_fast ship" speed="7.99" length="4.05" shape="2091.05,322.59 2090.94,326.49 2090.88,326.62"/>
    </edge>
    <edge id=":307407844_6" function="internal">
        <lane id=":307407844_6_0" index="0" disallow="tram rail_urban rail rail_electric rail_fast ship" speed="7.99" length="10.16" shape="2090.88,326.62 2089.61,329.40 2087.06,331.35 2083.28,332.31"/>
    </edge>
    <edge id=":307407844_4" function="internal">
        <lane id=":307407844_4_0" index="0" disallow="tram rail_urban rail rail_electric rail_fast ship" speed="6.49" length="9.03" shape="2082.94,329.13 2085.34,328.52 2086.96,327.28 2087.81,325.43 2087.87,322.95"/>
    </edge>
    <edge id=":307407844_5" function="internal">
        <lane id=":307407844_5_0" index="0" disallow="tram rail_urban rail rail_electric rail_fast ship" speed="8.04" length="14.19" shape="2082.94,329.13 2086.83,329.26 2089.76,330.59 2091.73,333.12 2092.73,336.86"/>
    </edge>
    <edge id=":307408085_0" function="internal">
        <lane id=":307408085_0_0" index="0" disallow="tram rail_urban rail rail_electric rail_fast ship" speed="22.22" length="15.33" shape="1937.49,486.58 1933.71,486.94 1929.85,487.12 1925.98,487.13 1922.19,486.97"/>
    </edge>
    <edge id=":307408085_1" function="internal">
        <lane id=":307408085_1_0" index="0" disallow="tram rail_urban rail rail_electric rail_fast ship" speed="8.25" length="4.12" shape="1937.49,486.58 1933.64,486.46 1933.41,486.34"/>
    </edge>
    <edge id=":307408085_6" function="internal">
        <lane id=":307408085_6_0" index="0" disallow="tram rail_urban rail rail_electric rail_fast ship" speed="8.25" length="10.68" shape="1933.41,486.34 1930.69,485.03 1928.62,482.28 1927.44,478.23"/>
    </edge>
    <edge id=":307408085_2" function="internal">
        <lane id=":307408085_2_0" index="0" disallow="tram rail_urban rail rail_electric rail_fast ship" speed="6.81" length="9.75" shape="1930.60,477.74 1931.38,480.47 1932.72,482.33 1934.63,483.31 1937.10,483.40"/>
    </edge>
    <edge id=":307408085_3" function="internal">
        <lane id=":307408085_3_0" index="0" disallow="tram rail_urban rail rail_electric rail_fast ship" speed="7.67" length="15.08" shape="1930.60,477.74 1930.65,482.01 1929.26,484.97 1926.44,486.63 1922.19,486.97"/>
    </edge>
    <edge id=":307408085_4" function="internal">
        <lane id=":307408085_4_0" index="0" disallow="tram rail_urban rail rail_electric rail_fast ship" speed="6.09" length="9.06" shape="1922.38,483.78 1924.94,483.57 1926.64,482.58 1927.47,480.80 1927.44,478.23"/>
    </edge>
    <edge id=":307408085_5" function="internal">
        <lane id=":307408085_5_0" index="0" disallow="tram rail_urban rail rail_electric rail_fast ship" speed="22.22" length="14.74" shape="1922.38,483.78 1926.09,483.94 1929.75,483.94 1933.41,483.77 1937.10,483.40"/>
    </edge>
    <edge id=":307408086_0" function="internal">
        <lane id=":307408086_0_0" index="0" disallow="tram rail_urban rail rail_electric rail_fast ship" speed="6.44" length="9.03" shape="2105.48,471.13 2104.90,468.71 2103.68,467.08 2101.83,466.25 2099.34,466.20"/>
    </edge>
    <edge id=":307408086_1" function="internal">
        <lane id=":307408086_1_0" index="0" disallow="tram rail_urban rail rail_electric rail_fast ship" speed="13.89" length="14.44" shape="2105.48,471.13 2103.94,456.77"/>
    </edge>
    <edge id=":307408086_2" function="internal">