<?xml version="1.0" encoding="UTF-8"?>

<!-- generated on 2025-12-26 23:17:24 by Eclipse SUMO netconvert Version 1.18.0
<configuration xmlns:xsi="http://www.w3.org/2001/XMLSchema-instance" xsi:noNamespaceSchemaLocation="http://sumo.dlr.de/xsd/netconvertConfiguration.xsd">

    <input>
        <osm-files value="app/sumo/network/tin_factory.osm"/>
    </input>

    <output>
        <output-file value="app/sumo/network/tin_factory.net.xml"/>
    </output>

    <projection>
        <proj.utm value="true"/>
    </projection>

    <processing>
        <geometry.remove value="true"/>
        <roundabouts.guess value="true"/>
    </processing>

    <tls_building>
        <tls.discard-simple value="false"/>
        <tls.guess value="true"/>
        <tls.guess.threshold value="9"/>
        <tls.join value="true"/>
        <tls.join-dist value="60"/>
        <tls.default-type value="static"/>
    </tls_building>

    <ramp_guessing>
        <ramps.guess value="true"/>
    </ramp_guessing>

    <edge_removal>
        <keep-edges.by-vclass value="passenger,bus,taxi,delivery"/>
        <remove-edges.isolated value="true"/>
    </edge_removal>

    <junctions>
        <no-turnarounds value="true"/>
        <junctions.join value="true"/>
    </junctions>

</configuration>
-->

<net version="1.16" junctionCornerDetail="5" limitTurnSpeed="5.50" xmlns:xsi="http://www.w3.org/2001/XMLSchema-instance" xsi:noNamespaceSchemaLocation="http://sumo.dlr.de/xsd/net_file.xsd">

    <location netOffset="-787260.83,-1437180.60" convBoundary="0.00,0.00,1844.53,984.22" origBoundary="77.565371,12.807712,77.710659,13.172957" projParameter="+proj=utm +zone=43 +ellps=WGS84 +datum=WGS84 +units=m +no_defs"/>

    <type id="highway.living_street" priority="2" numLanes="1" speed="2.78" disallow="tram rail_urban rail rail_electric rail_fast ship" oneway="0"/>
    <type id="highway.primary" priority="12" numLanes="2" speed="27.78" disallow="tram rail_urban rail rail_electric rail_fast ship" oneway="0"/>
    <type id="highway.residential" priority="3" numLanes="1" speed="13.89" disallow="tram rail_urban rail rail_electric rail_fast ship" oneway="0"/>
    <type id="highway.secondary" priority="11" numLanes="1" speed="27.78" disallow="tram rail_urban rail rail_electric rail_fast ship" oneway="0"/>
    <type id="highway.service" priority="1" numLanes="1" speed="5.56" allow="pedestrian delivery bicycle" oneway="0"/>
    <type id="highway.tertiary" priority="10" numLanes="1" speed="22.22" disallow="tram rail_urban rail rail_electric rail_fast ship" oneway="0"/>

    <edge id=":10079828874_0" function="internal">
        <lane id=":10079828874_0_0" index="0" disallow="tram rail_urban rail rail_electric rail_fast ship" speed="27.78" length="9.65" shape="1576.52,787.62 1567.62,783.88"/>
        <lane id=":10079828874_0_1" index="1" disallow="tram rail_urban rail rail_electric rail_fast ship" speed="27.78" length="9.65" shape="1577.76,784.67 1568.86,780.93"/>
        <lane id=":10079828874_0_2" index="2" disallow="tram rail_urban rail rail_electric rail_fast ship" speed="27.78" length="9.65" shape="1579.00,781.72 1570.10,777.98"/>
    </edge>
    <edge id=":10079828874_3" function="internal">
        <lane id=":10079828874_3_0" index="0" allow="pedestrian delivery bicycle" speed="7.76" length="2.83" shape="1579.00,781.72 1576.98,780.42 1576.74,780.07"/>
    </edge>
    <edge id=":10079828874_9" function="internal">
        <lane id=":10079828874_9_0" index="0" allow="pedestrian delivery bicycle" speed="7.76" length="7.64" shape="1576.74,780.07 1575.67,778.51 1575.04,775.98 1575.11,772.84"/>
    </edge>
    <edge id=":10079828874_4" function="internal">
        <lane id=":10079828874_4_0" index="0" allow="bicycle" speed="6.16" length="6.31" shape="1578.29,773.23 1578.21,775.26 1578.50,776.86 1579.18,778.03 1580.24,778.77"/>
    </edge>
    <edge id=":10079828874_5" function="internal">
        <lane id=":10079828874_5_0" index="0" allow="pedestrian delivery bicycle" speed="7.48" length="14.86" shape="1578.29,773.23 1577.19,777.87 1575.26,780.70 1572.48,781.72 1568.86,780.93"/>
        <lane id=":10079828874_5_1" index="1" allow="pedestrian delivery bicycle" speed="6.70" length="11.66" shape="1578.29,773.23 1577.42,776.45 1575.77,778.31 1573.33,778.82 1570.10,777.98"/>
    </edge>
    <edge id=":10079828874_7" function="internal">
        <lane id=":10079828874_7_0" index="0" allow="bicycle" speed="4.80" length="5.37" shape="1571.34,775.03 1572.83,775.42 1573.95,775.18 1574.71,774.32 1575.11,772.84"/>
    </edge>
    <edge id=":10079828874_8" function="internal">
        <lane id=":10079828874_8_0" index="0" allow="bus bicycle" speed="27.78" length="9.65" shape="1571.34,775.03 1580.24,778.77"/>
    </edge>
    <edge id=":10079828876_0" function="internal">
        <lane id=":10079828876_0_0" index="0" allow="pedestrian delivery bicycle" speed="5.56" length="6.28" shape="1575.37,674.18 1575.23,672.35 1574.89,671.11 1574.20,670.01 1573.01,668.59"/>
    </edge>
    <edge id=":10079828876_1" function="internal">
        <lane id=":10079828876_1_0" index="0" allow="pedestrian delivery bicycle" speed="5.56" length="2.74" shape="1575.37,674.18 1575.57,672.03 1575.79,671.50"/>
    </edge>
    <edge id=":10079828876_6" function="internal">
        <lane id=":10079828876_6_0" index="0" allow="pedestrian delivery bicycle" speed="5.56" length="5.84" shape="1575.79,671.50 1576.35,670.17 1577.72,668.61 1579.67,667.34"/>
    </edge>
    <edge id=":10079828876_2" function="internal">
        <lane id=":10079828876_2_0" index="0" allow="pedestrian delivery bicycle" speed="5.56" length="4.89" shape="1581.10,670.20 1579.96,670.94 1579.15,671.83 1578.69,672.86 1578.57,674.06"/>
    </edge>
    <edge id=":10079828876_3" function="internal">
        <lane id=":10079828876_3_0" index="0" allow="pedestrian delivery bicycle" speed="5.56" length="8.98" shape="1581.10,670.20 1578.84,670.98 1576.74,670.97 1574.80,670.17 1573.01,668.59"/>
    </edge>
    <edge id=":10079828876_4" function="internal">
        <lane id=":10079828876_4_0" index="0" allow="pedestrian delivery bicycle" speed="5.38" length="4.71" shape="1575.43,666.50 1576.36,667.33 1577.38,667.74 1578.49,667.75 1579.67,667.34"/>
    </edge>
    <edge id=":10079828876_5" function="internal">
        <lane id=":10079828876_5_0" index="0" allow="pedestrian delivery bicycle" speed="5.56" length="8.46" shape="1575.43,666.50 1577.02,668.41 1577.94,669.90 1578.38,671.58 1578.57,674.06"/>
    </edge>
    <edge id=":10079828913_0" function="internal">
        <lane id=":10079828913_0_0" index="0" disallow="tram rail_urban rail rail_electric rail_fast ship" speed="27.78" length="9.40" shape="1427.96,717.61 1436.29,721.97"/>
        <lane id=":10079828913_0_1" index="1" disallow="tram rail_urban rail rail_electric rail_fast ship" speed="27.78" length="9.40" shape="1426.47,720.44 1434.80,724.80"/>
    </edge>
    <edge id=":10079828913_2" function="internal">
        <lane id=":10079828913_2_0" index="0" allow="pedestrian delivery bicycle" speed="6.10" length="7.76" shape="1426.47,720.44 1428.82,721.89 1430.30,723.32 1430.90,724.73 1430.62,726.12"/>
    </edge>
    <edge id=":10079828913_3" function="internal">
        <lane id=":10079828913_3_0" index="0" allow="pedestrian delivery bicycle" speed="6.08" length="7.77" shape="1427.78,724.65 1428.76,723.62 1430.25,723.30 1432.27,723.70 1434.80,724.80"/>
    </edge>
    <edge id=":10079828914_0" function="internal">
        <lane id=":10079828914_0_0" index="0" allow="pedestrian delivery bicycle" speed="5.56" length="9.40" shape="1421.73,750.27 1413.31,746.10"/>
    </edge>
    <edge id=":10079828914_1" function="internal">
        <lane id=":10079828914_1_0" index="0" allow="pedestrian delivery bicycle" speed="5.56" length="3.28" shape="1421.73,750.27 1419.41,748.67 1419.16,748.28"/>
    </edge>
    <edge id=":10079828914_6" function="internal">
        <lane id=":10079828914_6_0" index="0" allow="pedestrian delivery bicycle" speed="5.56" length="6.97" shape="1419.16,748.28 1418.17,746.72 1418.01,744.42 1418.94,741.76"/>
    </edge>
    <edge id=":10079828914_2" function="internal">
        <lane id=":10079828914_2_0" index="0" allow="pedestrian delivery bicycle" speed="5.02" length="5.02" shape="1421.78,743.23 1421.33,744.53 1421.41,745.66 1422.01,746.62 1423.15,747.40"/>
    </edge>
    <edge id=":10079828914_3" function="internal">
        <lane id=":10079828914_3_0" index="0" allow="pedestrian delivery bicycle" speed="5.56" length="10.16" shape="1421.78,743.23 1420.16,745.52 1418.21,746.76 1415.93,746.95 1413.31,746.10"/>
    </edge>
    <edge id=":10079828914_4" function="internal">
        <lane id=":10079828914_4_0" index="0" allow="pedestrian delivery bicycle" speed="5.10" length="5.07" shape="1414.72,743.23 1416.02,743.65 1417.16,743.54 1418.13,742.92 1418.94,741.76"/>
    </edge>
    <edge id=":10079828914_5" function="internal">
        <lane id=":10079828914_5_0" index="0" allow="pedestrian delivery bicycle" speed="5.56" length="9.40" shape="1414.72,743.23 1423.15,747.40"/>
    </edge>
    <edge id=":10081033288_0" function="internal">
        <lane id=":10081033288_0_0" index="0" disallow="tram rail_urban rail rail_electric rail_fast ship" speed="2.78" length="12.42" shape="1530.41,885.85 1526.88,886.15 1524.28,887.40 1522.60,889.60 1521.85,892.74"/>
    </edge>
    <edge id=":10081033288_1" function="internal">
        <lane id=":10081033288_1_0" index="0" disallow="tram rail_urban rail rail_electric rail_fast ship" speed="2.78" length="16.53" shape="1530.41,885.85 1526.42,885.76 1522.14,885.80 1517.87,885.95 1513.89,886.21"/>
    </edge>
    <edge id=":10081033288_2" function="internal">
        <lane id=":10081033288_2_0" index="0" disallow="tram rail_urban rail rail_electric rail_fast ship" speed="7.64" length="4.19" shape="1530.41,885.85 1526.29,885.08"/>
    </edge>
    <edge id=":10081033288_12" function="internal">
        <lane id=":10081033288_12_0" index="0" disallow="tram rail_urban rail rail_electric rail_fast ship" speed="7.64" length="11.02" shape="1526.29,885.08 1526.16,885.05 1523.53,883.09 1522.53,879.97 1523.15,875.69"/>
    </edge>
    <edge id=":10081033288_3" function="internal">
        <lane id=":10081033288_3_0" index="0" disallow="tram rail_urban rail rail_electric rail_fast ship" speed="6.05" length="9.07" shape="1526.22,876.59 1525.85,879.15 1526.45,881.01 1528.01,882.18 1530.55,882.66"/>
    </edge>
    <edge id=":10081033288_4" function="internal">
        <lane id=":10081033288_4_0" index="0" disallow="tram rail_urban rail rail_electric rail_fast ship" speed="8.34" length="16.76" shape="1526.22,876.59 1524.99,880.44 1523.65,884.60 1522.50,888.79 1521.85,892.74"/>
    </edge>
    <edge id=":10081033288_5" function="internal">
        <lane id=":10081033288_5_0" index="0" disallow="tram rail_urban rail rail_electric rail_fast ship" speed="8.34" length="4.75" shape="1526.22,876.59 1524.43,879.90 1523.72,880.60"/>
    </edge>
    <edge id=":10081033288_13" function="internal">
        <lane id=":10081033288_13_0" index="0" disallow="tram rail_urban rail rail_electric rail_fast ship" speed="8.34" length="11.56" shape="1523.72,880.60 1521.39,882.91 1517.68,885.16 1513.89,886.21"/>
    </edge>
    <edge id=":10081033288_6" function="internal">
        <lane id=":10081033288_6_0" index="0" disallow="tram rail_urban rail rail_electric rail_fast ship" speed="8.34" length="12.85" shape="1513.62,883.02 1517.05,882.33 1519.78,880.88 1521.81,878.67 1523.15,875.69"/>
    </edge>
    <edge id=":10081033288_7" function="internal">
        <lane id=":10081033288_7_0" index="0" disallow="tram rail_urban rail rail_electric rail_fast ship" speed="2.78" length="16.94" shape="1513.62,883.02 1517.67,882.76 1522.08,882.60 1526.50,882.56 1530.55,882.66"/>
    </edge>
    <edge id=":10081033288_8" function="internal">
        <lane id=":10081033288_8_0" index="0" disallow="tram rail_urban rail rail_electric rail_fast ship" speed="2.78" length="3.92" shape="1513.62,883.02 1517.53,883.35"/>
    </edge>
    <edge id=":10081033288_14" function="internal">
        <lane id=":10081033288_14_0" index="0" disallow="tram rail_urban rail rail_electric rail_fast ship" speed="2.78" length="11.17" shape="1517.53,883.35 1520.21,885.08 1521.65,888.21 1521.85,892.74"/>
    </edge>
    <edge id=":10081033288_9" function="internal">
        <lane id=":10081033288_9_0" index="0" disallow="tram rail_urban rail rail_electric rail_fast ship" speed="2.78" length="8.78" shape="1518.72,891.82 1518.59,889.20 1517.75,887.40 1516.18,886.40 1513.89,886.21"/>
    </edge>
    <edge id=":10081033288_10" function="internal">
        <lane id=":10081033288_10_0" index="0" disallow="tram rail_urban rail rail_electric rail_fast ship" speed="8.34" length="16.76" shape="1518.72,891.82 1519.38,887.88 1520.55,883.69 1521.91,879.54 1523.15,875.69"/>
    </edge>
    <edge id=":10081033288_11" function="internal">
        <lane id=":10081033288_11_0" index="0" disallow="tram rail_urban rail rail_electric rail_fast ship" speed="2.78" length="5.31" shape="1518.72,891.82 1520.02,888.33 1521.12,887.19"/>
    </edge>
    <edge id=":10081033288_15" function="internal">
        <lane id=":10081033288_15_0" index="0" disallow="tram rail_urban rail rail_electric rail_fast ship" speed="2.78" length="10.78" shape="1521.12,887.19 1522.91,885.35 1526.65,883.32 1530.55,882.66"/>
    </edge>
    <edge id=":10081033298_0" function="internal">
        <lane id=":10081033298_0_0" index="0" disallow="tram rail_urban rail rail_electric rail_fast ship" speed="13.89" length="11.50" shape="1555.83,884.72 1555.35,873.23"/>
    </edge>
    <edge id=":10081033298_1" function="internal">
        <lane id=":10081033298_1_0" index="0" disallow="tram rail_urban rail rail_electric rail_fast ship" speed="7.32" length="2.73" shape="1555.83,884.72 1556.28,882.03"/>
    </edge>
    <edge id=":10081033298_6" function="internal">
        <lane id=":10081033298_6_0" index="0" disallow="tram rail_urban rail rail_electric rail_fast ship" speed="7.32" length="9.47" shape="1556.28,882.03 1557.91,880.13 1560.69,879.02 1564.65,878.69"/>
    </edge>
    <edge id=":10081033298_2" function="internal">
        <lane id=":10081033298_2_0" index="0" disallow="tram rail_urban rail rail_electric rail_fast ship" speed="5.67" length="6.90" shape="1564.60,881.89 1562.12,882.03 1560.36,882.52 1559.33,883.38 1559.02,884.59"/>
    </edge>
    <edge id=":10081033298_3" function="internal">
        <lane id=":10081033298_3_0" index="0" disallow="tram rail_urban rail rail_electric rail_fast ship" speed="8.19" length="14.28" shape="1564.60,881.89 1560.69,881.30 1557.84,879.66 1556.06,876.97 1555.35,873.23"/>
    </edge>
    <edge id=":10081033298_4" function="internal">
        <lane id=":10081033298_4_0" index="0" disallow="tram rail_urban rail rail_electric rail_fast ship" speed="6.73" length="9.32" shape="1558.55,873.10 1559.02,875.51 1560.19,877.25 1562.07,878.31 1564.65,878.69"/>
    </edge>
    <edge id=":10081033298_5" function="internal">
        <lane id=":10081033298_5_0" index="0" disallow="tram rail_urban rail rail_electric rail_fast ship" speed="13.89" length="11.50" shape="1558.55,873.10 1559.02,884.59"/>
    </edge>
    <edge id=":10081033300_0" function="internal">
        <lane id=":10081033300_0_0" index="0" disallow="tram rail_urban rail rail_electric rail_fast ship" speed="2.78" length="15.64" shape="1599.52,877.23 1597.63,880.59 1595.55,883.99 1593.61,887.45 1592.10,890.97"/>
    </edge>
    <edge id=":10081033300_1" function="internal">
        <lane id=":10081033300_1_0" index="0" disallow="tram rail_urban rail rail_electric rail_fast ship" speed="2.78" length="15.11" shape="1599.52,877.23 1597.70,879.47 1594.84,881.05 1590.94,881.96 1586.00,882.21"/>
    </edge>
    <edge id=":10081033300_2" function="internal">
        <lane id=":10081033300_2_0" index="0" disallow="tram rail_urban rail rail_electric rail_fast ship" speed="2.78" length="11.06" shape="1586.57,879.03 1590.35,878.87 1593.29,878.28 1595.40,877.25 1596.66,875.79"/>
    </edge>
    <edge id=":10081033300_3" function="internal">
        <lane id=":10081033300_3_0" index="0" disallow="tram rail_urban rail rail_electric rail_fast ship" speed="2.78" length="16.17" shape="1586.57,879.03 1590.45,879.83 1592.66,882.09 1593.22,885.80 1592.10,890.97"/>
    </edge>
    <edge id=":10081033300_4" function="internal">
        <lane id=":10081033300_4_0" index="0" disallow="tram rail_urban rail rail_electric rail_fast ship" speed="2.78" length="9.37" shape="1589.37,889.03 1589.99,886.08 1589.64,883.96 1588.31,882.67 1586.00,882.21"/>
    </edge>
    <edge id=":10081033300_5" function="internal">
        <lane id=":10081033300_5_0" index="0" disallow="tram rail_urban rail rail_electric rail_fast ship" speed="2.78" length="15.14" shape="1589.37,889.03 1590.86,885.59 1592.76,882.30 1594.79,879.07 1596.66,875.79"/>
    </edge>
    <edge id=":10081033306_0" function="internal">
        <lane id=":10081033306_0_0" index="0" disallow="tram rail_urban rail rail_electric rail_fast ship" speed="13.89" length="14.45" shape="1662.73,902.96 1661.88,906.51 1660.71,909.87 1659.38,913.19 1658.03,916.61"/>
    </edge>
    <edge id=":10081033306_1" function="internal">
        <lane id=":10081033306_1_0" index="0" disallow="tram rail_urban rail rail_electric rail_fast ship" speed="7.97" length="4.07" shape="1662.73,902.96 1661.50,906.35 1661.15,906.67"/>
    </edge>
    <edge id=":10081033306_6" function="internal">
        <lane id=":10081033306_6_0" index="0" disallow="tram rail_urban rail rail_electric rail_fast ship" speed="7.97" length="10.59" shape="1661.15,906.67 1659.20,908.44 1655.82,909.24 1651.37,908.74"/>
    </edge>
    <edge id=":10081033306_2" function="internal">
        <lane id=":10081033306_2_0" index="0" disallow="tram rail_urban rail rail_electric rail_fast ship" speed="6.61" length="9.75" shape="1652.08,905.62 1655.06,905.96 1657.32,905.45 1658.86,904.07 1659.68,901.85"/>
    </edge>
    <edge id=":10081033306_3" function="internal">
        <lane id=":10081033306_3_0" index="0" disallow="tram rail_urban rail rail_electric rail_fast ship" speed="7.79" length="14.69" shape="1652.08,905.62 1655.91,907.10 1658.17,909.43 1658.88,912.59 1658.03,916.61"/>
    </edge>
    <edge id=":10081033306_4" function="internal">
        <lane id=":10081033306_4_0" index="0" disallow="tram rail_urban rail rail_electric rail_fast ship" speed="6.25" length="9.05" shape="1655.03,915.50 1655.55,913.03 1655.12,911.08 1653.72,909.65 1651.37,908.74"/>
    </edge>
    <edge id=":10081033306_5" function="internal">
        <lane id=":10081033306_5_0" index="0" disallow="tram rail_urban rail rail_electric rail_fast ship" speed="13.89" length="14.45" shape="1655.03,915.50 1656.36,912.08 1657.68,908.76 1658.84,905.40 1659.68,901.85"/>
    </edge>
    <edge id=":10980166169_0" function="internal">
        <lane id=":10980166169_0_0" index="0" allow="pedestrian delivery bicycle" speed="5.56" length="4.31" shape="1597.43,773.49 1597.57,772.24 1597.91,771.39 1598.21,770.55 1598.20,769.31"/>
    </edge>
    <edge id=":10980166169_1" function="internal">
        <lane id=":10980166169_1_0" index="0" allow="pedestrian delivery bicycle" speed="4.13" length="5.87" shape="1596.54,770.07 1597.60,771.83 1598.23,772.30 1598.43,771.46 1598.20,769.31"/>
    </edge>
    <edge id=":10980166169_2" function="internal">
        <lane id=":10980166169_2_0" index="0" allow="pedestrian delivery bicycle" speed="5.56" length="5.26" shape="1596.54,770.07 1600.63,773.38"/>
    </edge>
    <edge id=":10994058282_0" function="internal">
        <lane id=":10994058282_0_0" index="0" disallow="tram rail_urban rail rail_electric rail_fast ship" speed="10.44" length="12.03" shape="1544.81,840.02 1541.78,841.38 1539.33,843.13 1537.47,845.28 1536.20,847.83"/>
    </edge>
    <edge id=":10994058282_1" function="internal">
        <lane id=":10994058282_1_0" index="0" disallow="tram rail_urban rail rail_electric rail_fast ship" speed="7.78" length="15.08" shape="1544.81,840.02 1540.44,840.94 1537.10,840.29 1534.79,838.07 1533.51,834.28"/>
    </edge>
    <edge id=":10994058282_2" function="internal">
        <lane id=":10994058282_2_0" index="0" disallow="tram rail_urban rail rail_electric rail_fast ship" speed="6.11" length="8.85" shape="1536.67,833.75 1537.42,835.99 1538.77,837.31 1540.72,837.70 1543.28,837.17"/>
    </edge>
    <edge id=":10994058282_3" function="internal">
        <lane id=":10994058282_3_0" index="0" disallow="tram rail_urban rail rail_electric rail_fast ship" speed="13.89" length="14.24" shape="1536.67,833.75 1537.17,837.37 1537.37,840.87 1537.09,844.34 1536.20,847.83"/>
    </edge>
    <edge id=":10994058282_4" function="internal">
        <lane id=":10994058282_4_0" index="0" disallow="tram rail_urban rail rail_electric rail_fast ship" speed="13.89" length="12.63" shape="1533.19,846.73 1534.06,843.49 1534.29,840.59 1534.04,837.64 1533.51,834.28"/>
    </edge>
    <edge id=":10994058282_5" function="internal">
        <lane id=":10994058282_5_0" index="0" disallow="tram rail_urban rail rail_electric rail_fast ship" speed="11.38" length="14.38" shape="1533.19,846.73 1534.74,843.54 1536.94,840.89 1539.79,838.76 1543.28,837.17"/>
    </edge>
    <edge id=":11801662688_0" function="internal">
        <lane id=":11801662688_0_0" index="0" disallow="tram rail_urban rail rail_electric rail_fast ship" speed="27.78" length="0.30" shape="34.36,17.52 34.08,17.40"/>
        <lane id=":11801662688_0_1" index="1" disallow="tram rail_urban rail rail_electric rail_fast ship" speed="27.78" length="0.30" shape="35.59,14.56 35.31,14.45"/>
        <lane id=":11801662688_0_2" index="2" disallow="tram rail_urban rail rail_electric rail_fast ship" speed="27.78" length="0.30" shape="36.81,11.61 36.53,11.49"/>
    </edge>
    <edge id=":12151323857_0" function="internal">
        <lane id=":12151323857_0_0" index="0" disallow="tram rail_urban rail rail_electric rail_fast ship" speed="27.78" length="6.21" shape="1526.07,766.44 1531.72,769.00"/>
        <lane id=":12151323857_0_1" index="1" disallow="tram rail_urban rail rail_electric rail_fast ship" speed="27.78" length="6.21" shape="1524.75,769.35 1530.40,771.92"/>
    </edge>
    <edge id=":12151323857_2" function="internal">
        <lane id=":12151323857_2_0" index="0" allow="pedestrian delivery bicycle" speed="5.13" length="5.06" shape="1526.21,773.49 1527.01,772.33 1527.97,771.68 1529.10,771.54 1530.40,771.92"/>
    </edge>
    <edge id=":12157764541_0" function="internal">
        <lane id=":12157764541_0_0" index="0" allow="pedestrian delivery bicycle" speed="5.26" length="5.17" shape="1590.88,741.32 1591.03,742.64 1591.60,743.64 1592.60,744.34 1594.02,744.71"/>
    </edge>
    <edge id=":12157764541_1" function="internal">
        <lane id=":12157764541_1_0" index="0" allow="pedestrian delivery bicycle" speed="5.56" length="6.25" shape="1590.88,741.32 1590.69,747.57"/>
    </edge>
    <edge id=":12171293743_0" function="internal">
        <lane id=":12171293743_0_0" index="0" allow="pedestrian delivery bicycle" speed="5.12" length="5.05" shape="1342.55,650.73 1341.25,650.34 1340.12,650.46 1339.15,651.10 1338.35,652.25"/>
    </edge>
    <edge id=":12171293743_1" function="internal">
        <lane id=":12171293743_1_0" index="0" allow="pedestrian delivery bicycle" speed="5.56" length="6.20" shape="1342.55,650.73 1336.93,648.09"/>
    </edge>
    <edge id=":12171293743_2" function="internal">
        <lane id=":12171293743_2_0" index="0" allow="pedestrian delivery bicycle" speed="5.56" length="6.20" shape="1338.29,645.20 1343.91,647.83"/>
    </edge>
    <edge id=":12171293743_3" function="internal">
        <lane id=":12171293743_3_0" index="0" allow="pedestrian delivery bicycle" speed="5.56" length="1.72" shape="1338.29,645.20 1339.41,646.16 1339.47,646.40"/>
    </edge>
    <edge id=":12171293743_4" function="internal">
        <lane id=":12171293743_4_0" index="0" allow="pedestrian delivery bicycle" speed="5.56" length="6.14" shape="1339.47,646.40 1339.79,647.65 1339.43,649.68 1338.35,652.25"/>
    </edge>
    <edge id=":12171293745_0" function="internal">
        <lane id=":12171293745_0_0" index="0" disallow="tram rail_urban rail rail_electric rail_fast ship" speed="27.78" length="6.20" shape="1334.80,666.26 1329.24,663.53"/>
        <lane id=":12171293745_0_1" index="1" disallow="tram rail_urban rail rail_electric rail_fast ship" speed="27.78" length="6.20" shape="1336.21,663.39 1330.65,660.65"/>
        <lane id=":12171293745_0_2" index="2" disallow="tram rail_urban rail rail_electric rail_fast ship" speed="27.78" length="6.20" shape="1337.63,660.52 1332.06,657.78"/>
    </edge>
    <edge id=":12171293745_3" function="internal">
        <lane id=":12171293745_3_0" index="0" allow="bicycle" speed="5.00" length="5.05" shape="1337.71,653.47 1337.23,654.77 1337.29,655.91 1337.89,656.86 1339.04,657.65"/>
    </edge>
    <edge id=":12171293745_4" function="internal">
        <lane id=":12171293745_4_0" index="0" allow="pedestrian delivery bicycle" speed="7.12" length="10.65" shape="1337.71,653.47 1335.55,657.07 1333.66,659.47 1332.02,660.66 1330.65,660.65"/>
        <lane id=":12171293745_4_1" index="1" allow="pedestrian delivery bicycle" speed="6.17" length="7.76" shape="1337.71,653.47 1336.22,655.84 1334.78,657.35 1333.39,657.99 1332.06,657.78"/>
    </edge>
    <edge id=":12171293745_6" function="internal">
        <lane id=":12171293745_6_0" index="0" allow="bus bicycle" speed="27.78" length="6.20" shape="1333.47,654.91 1339.04,657.65"/>
    </edge>
    <edge id=":12185994565_0" function="internal">
        <lane id=":12185994565_0_0" index="0" disallow="tram rail_urban rail rail_electric rail_fast ship" speed="6.31" length="5.64" shape="1686.26,822.20 1684.60,821.66 1683.15,821.52 1681.93,821.76 1680.92,822.39"/>
    </edge>
    <edge id=":12185994565_1" function="internal">
        <lane id=":12185994565_1_0" index="0" disallow="tram rail_urban rail rail_electric rail_fast ship" speed="6.81" length="9.27" shape="1686.26,822.20 1683.39,820.77 1681.50,819.23 1680.58,817.59 1680.64,815.85"/>
    </edge>
    <edge id=":12185994565_2" function="internal">
        <lane id=":12185994565_2_0" index="0" disallow="tram rail_urban rail rail_electric rail_fast ship" speed="11.67" length="6.40" shape="1683.70,816.78 1683.20,818.62 1682.83,819.91 1682.19,821.04 1680.92,822.39"/>
    </edge>
    <edge id=":12185994565_3" function="internal">
        <lane id=":12185994565_3_0" index="0" disallow="tram rail_urban rail rail_electric rail_fast ship" speed="10.32" length="4.71" shape="1678.72,820.04 1679.63,819.03 1680.05,818.18 1680.29,817.21 1680.64,815.85"/>
    </edge>
    <edge id=":12213534819_0" function="internal">
        <lane id=":12213534819_0_0" index="0" disallow="tram rail_urban rail rail_electric rail_fast ship" speed="27.78" length="14.90" shape="1678.85,837.06 1665.48,830.44"/>
        <lane id=":12213534819_0_1" index="1" disallow="tram rail_urban rail rail_electric rail_fast ship" speed="27.78" length="14.90" shape="1680.27,834.18 1666.91,827.58"/>
        <lane id=":12213534819_0_2" index="2" disallow="tram rail_urban rail rail_electric rail_fast ship" speed="27.78" length="14.90" shape="1681.68,831.31 1668.34,824.72"/>
    </edge>
    <edge id=":12213534819_3" function="internal">
        <lane id=":12213534819_3_0" index="0" disallow="tram rail_urban rail rail_electric rail_fast ship" speed="7.25" length="4.81" shape="1681.68,831.31 1677.82,828.82 1677.70,828.64"/>
    </edge>
    <edge id=":12213534819_9" function="internal">
        <lane id=":12213534819_9_0" index="0" disallow="tram rail_urban rail rail_electric rail_fast ship" speed="7.25" length="9.75" shape="1677.70,828.64 1676.02,826.13 1676.27,823.25 1678.57,820.18"/>
    </edge>
    <edge id=":12213534819_4" function="internal">
        <lane id=":12213534819_4_0" index="0" allow="bus bicycle" speed="5.52" length="7.93" shape="1680.77,822.53 1679.66,824.07 1679.67,825.57 1680.81,827.02 1683.09,828.44"/>
    </edge>
    <edge id=":12213534819_5" function="internal">
        <lane id=":12213534819_5_0" index="0" disallow="tram rail_urban rail rail_electric rail_fast ship" speed="9.75" length="15.62" shape="1680.77,822.53 1676.76,825.76 1673.11,827.68 1669.82,828.29 1666.91,827.58"/>
        <lane id=":12213534819_5_1" index="1" disallow="tram rail_urban rail rail_electric rail_fast ship" speed="9.10" length="13.52" shape="1680.77,822.53 1677.79,824.71 1674.72,825.80 1671.57,825.80 1668.34,824.72"/>
    </edge>
    <edge id=":12213534819_7" function="internal">
        <lane id=":12213534819_7_0" index="0" allow="bus bicycle" speed="7.71" length="9.61" shape="1669.76,821.85 1672.05,822.61 1674.28,822.59 1676.45,821.78 1678.57,820.18"/>
    </edge>
    <edge id=":12213534819_8" function="internal">
        <lane id=":12213534819_8_0" index="0" allow="bus bicycle" speed="27.78" length="14.86" shape="1669.76,821.85 1683.09,828.44"/>
    </edge>
    <edge id=":12901667696_0" function="internal">
        <lane id=":12901667696_0_0" index="0" allow="pedestrian delivery bicycle" speed="5.00" length="5.04" shape="1567.69,648.44 1567.46,647.07 1566.85,646.12 1565.86,645.58 1564.47,645.46"/>
    </edge>
    <edge id=":12901667696_1" function="internal">
        <lane id=":12901667696_1_0" index="0" allow="pedestrian delivery bicycle" speed="5.56" length="9.40" shape="1567.69,648.44 1567.50,639.04"/>
    </edge>
    <edge id=":12901667696_2" function="internal">
        <lane id=":12901667696_2_0" index="0" allow="pedestrian delivery bicycle" speed="5.56" length="9.40" shape="1570.70,638.98 1570.89,648.38"/>
    </edge>
    <edge id=":12901667696_3" function="internal">
        <lane id=":12901667696_3_0" index="0" allow="pedestrian delivery bicycle" speed="5.56" length="3.19" shape="1570.70,638.98 1570.36,641.68 1570.12,642.09"/>
    </edge>