<?xml version="1.0" encoding="UTF-8"?>

<!-- generated on 2025-05-21 16:43:40 by Eclipse SUMO netconvert Version 1.23.1
<netconvertConfiguration xmlns:xsi="http://www.w3.org/2001/XMLSchema-instance" xsi:noNamespaceSchemaLocation="http://sumo.dlr.de/xsd/netconvertConfiguration.xsd">

    <input>
        <osm-files value="map.osm"/>
    </input>

    <output>
        <output-file value="map.net.xml"/>
    </output>

    <projection>
        <proj.utm value="true"/>
    </projection>

</netconvertConfiguration>
-->

<net version="1.20" junctionCornerDetail="5" limitTurnSpeed="5.50" xmlns:xsi="http://www.w3.org/2001/XMLSchema-instance" xsi:noNamespaceSchemaLocation="http://sumo.dlr.de/xsd/net_file.xsd">

    <location netOffset="-781669.42,-1436964.77" convBoundary="0.00,0.00,1946.32,1738.79" origBoundary="77.483855,12.917267,77.761361,13.043933" projParameter="+proj=utm +zone=43 +ellps=WGS84 +datum=WGS84 +units=m +no_defs"/>

    <type id="highway.footway" priority="1" numLanes="1" speed="2.78" allow="pedestrian" oneway="1" width="2.00"/>
    <type id="highway.living_street" priority="2" numLanes="1" speed="2.78" disallow="tram rail_urban rail rail_electric rail_fast ship container cable_car subway aircraft wheelchair scooter drone" oneway="0"/>
    <type id="highway.path" priority="1" numLanes="1" speed="5.56" allow="pedestrian bicycle" oneway="0" width="2.00"/>
    <type id="highway.primary" priority="12" numLanes="2" speed="27.78" disallow="tram rail_urban rail rail_electric rail_fast ship container cable_car subway aircraft wheelchair scooter drone" oneway="0"/>
    <type id="highway.residential" priority="3" numLanes="1" speed="13.89" disallow="tram rail_urban rail rail_electric rail_fast ship container cable_car subway aircraft wheelchair scooter drone" oneway="0"/>
    <type id="highway.secondary" priority="11" numLanes="1" speed="27.78" disallow="tram rail_urban rail rail_electric rail_fast ship container cable_car subway aircraft wheelchair scooter drone" oneway="0"/>
    <type id="highway.service" priority="1" numLanes="1" speed="5.56" allow="pedestrian delivery bicycle" oneway="0"/>
    <type id="highway.steps" priority="1" numLanes="1" speed="1.39" allow="pedestrian" oneway="1" width="2.00"/>
    <type id="highway.tertiary" priority="10" numLanes="1" speed="22.22" disallow="tram rail_urban rail rail_electric rail_fast ship container cable_car subway aircraft wheelchair scooter drone" oneway="0"/>
    <type id="railway.rail" priority="20" numLanes="1" speed="44.44" allow="rail" oneway="1"/>

    <edge id=":10008065405_0" function="internal">
        <lane id=":10008065405_0_0" index="0" disallow="tram rail_urban rail rail_electric rail_fast ship container cable_car subway aircraft wheelchair scooter drone" speed="6.67" length="9.21" shape="996.04,771.34 994.12,769.80 992.12,769.22 990.05,769.62 987.89,770.99"/>
    </edge>
    <edge id=":10008065405_1" function="internal">
        <lane id=":10008065405_1_0" index="0" disallow="tram rail_urban rail rail_electric rail_fast ship container cable_car subway aircraft wheelchair scooter drone" speed="8.33" length="14.37" shape="996.04,771.34 986.38,760.70"/>
    </edge>
    <edge id=":10008065405_2" function="internal">
        <lane id=":10008065405_2_0" index="0" disallow="tram rail_urban rail rail_electric rail_fast ship container cable_car subway aircraft wheelchair scooter drone" speed="3.65" length="1.44" shape="996.04,771.34 995.81,769.92"/>
    </edge>
    <edge id=":10008065405_9" function="internal">
        <lane id=":10008065405_9_0" index="0" disallow="tram rail_urban rail rail_electric rail_fast ship container cable_car subway aircraft wheelchair scooter drone" speed="3.65" length="3.23" shape="995.81,769.92 996.13,769.08 996.99,768.83 998.39,769.17"/>
    </edge>
    <edge id=":10008065405_3" function="internal">
        <lane id=":10008065405_3_0" index="0" disallow="tram rail_urban rail rail_electric rail_fast ship container cable_car subway aircraft wheelchair scooter drone" speed="8.33" length="14.31" shape="988.77,758.57 998.39,769.17"/>
    </edge>
    <edge id=":10008065405_4" function="internal">
        <lane id=":10008065405_4_0" index="0" disallow="tram rail_urban rail rail_electric rail_fast ship container cable_car subway aircraft wheelchair scooter drone" speed="7.95" length="3.93" shape="988.77,758.57 990.94,761.84"/>
    </edge>
    <edge id=":10008065405_5" function="internal">
        <lane id=":10008065405_5_0" index="0" disallow="tram rail_urban rail rail_electric rail_fast ship container cable_car subway aircraft wheelchair scooter drone" speed="3.65" length="1.44" shape="988.77,758.57 988.97,759.99"/>
    </edge>
    <edge id=":10008065405_10" function="internal">
        <lane id=":10008065405_10_0" index="0" disallow="tram rail_urban rail rail_electric rail_fast ship container cable_car subway aircraft wheelchair scooter drone" speed="7.95" length="10.36" shape="990.94,761.84 991.52,765.01 990.50,768.06 987.89,770.99"/>
    </edge>
    <edge id=":10008065405_11" function="internal">
        <lane id=":10008065405_11_0" index="0" disallow="tram rail_urban rail rail_electric rail_fast ship container cable_car subway aircraft wheelchair scooter drone" speed="3.65" length="3.23" shape="988.97,759.99 988.64,760.83 987.78,761.06 986.38,760.70"/>
    </edge>
    <edge id=":10008065405_6" function="internal">
        <lane id=":10008065405_6_0" index="0" disallow="tram rail_urban rail rail_electric rail_fast ship container cable_car subway aircraft wheelchair scooter drone" speed="6.45" length="9.03" shape="985.82,768.55 987.48,766.69 988.12,764.77 987.75,762.77 986.38,760.70"/>
    </edge>
    <edge id=":10008065405_7" function="internal">
        <lane id=":10008065405_7_0" index="0" disallow="tram rail_urban rail rail_electric rail_fast ship container cable_car subway aircraft wheelchair scooter drone" speed="8.14" length="14.21" shape="985.82,768.55 989.13,766.46 992.33,765.86 995.42,766.77 998.39,769.17"/>
    </edge>
    <edge id=":10008065405_8" function="internal">
        <lane id=":10008065405_8_0" index="0" disallow="tram rail_urban rail rail_electric rail_fast ship container cable_car subway aircraft wheelchair scooter drone" speed="3.65" length="4.67" shape="985.82,768.55 987.26,768.39 988.08,768.74 988.29,769.61 987.89,770.99"/>
    </edge>
    <edge id=":10008065409_0" function="internal">
        <lane id=":10008065409_0_0" index="0" disallow="tram rail_urban rail rail_electric rail_fast ship container cable_car subway aircraft wheelchair scooter drone" speed="27.78" length="9.33" shape="884.09,794.81 877.75,787.96"/>
    </edge>
    <edge id=":10008065409_1" function="internal">
        <lane id=":10008065409_1_0" index="0" disallow="tram rail_urban rail rail_electric rail_fast ship container cable_car subway aircraft wheelchair scooter drone" speed="6.03" length="7.89" shape="884.09,794.81 882.41,792.58 881.58,790.70 881.61,789.15 882.49,787.94"/>
    </edge>
    <edge id=":10008065409_2" function="internal">
        <lane id=":10008065409_2_0" index="0" disallow="tram rail_urban rail rail_electric rail_fast ship container cable_car subway aircraft wheelchair scooter drone" speed="6.32" length="7.81" shape="884.48,790.44 883.15,791.01 881.59,790.79 879.79,789.77 877.75,787.96"/>
    </edge>
    <edge id=":10008065409_3" function="internal">
        <lane id=":10008065409_3_0" index="0" disallow="tram rail_urban rail rail_electric rail_fast ship container cable_car subway aircraft wheelchair scooter drone" speed="3.65" length="4.67" shape="884.48,790.44 883.04,790.56 882.23,790.19 882.05,789.31 882.49,787.94"/>
    </edge>
    <edge id=":10010897694_0" function="internal">
        <lane id=":10010897694_0_0" index="0" disallow="tram rail_urban rail rail_electric rail_fast ship container cable_car subway aircraft wheelchair scooter drone" speed="6.37" length="9.04" shape="1291.71,541.93 1291.02,539.53 1289.73,537.97 1287.84,537.27 1285.34,537.42"/>
    </edge>
    <edge id=":10010897694_1" function="internal">
        <lane id=":10010897694_1_0" index="0" disallow="tram rail_urban rail rail_electric rail_fast ship container cable_car subway aircraft wheelchair scooter drone" speed="7.30" length="10.46" shape="1291.71,541.93 1291.39,538.05 1291.60,535.16 1292.37,533.25 1293.68,532.32"/>
    </edge>
    <edge id=":10010897694_2" function="internal">
        <lane id=":10010897694_2_0" index="0" disallow="tram rail_urban rail rail_electric rail_fast ship container cable_car subway aircraft wheelchair scooter drone" speed="3.65" length="4.67" shape="1291.71,541.93 1292.34,540.63 1293.08,540.12 1293.93,540.41 1294.88,541.49"/>
    </edge>
    <edge id=":10010897694_3" function="internal">
        <lane id=":10010897694_3_0" index="0" disallow="tram rail_urban rail rail_electric rail_fast ship container cable_car subway aircraft wheelchair scooter drone" speed="5.78" length="6.22" shape="1294.53,535.40 1294.16,536.33 1294.29,538.18 1294.64,540.16 1294.88,541.49"/>
    </edge>
    <edge id=":10010897694_4" function="internal">
        <lane id=":10010897694_4_0" index="0" disallow="tram rail_urban rail rail_electric rail_fast ship container cable_car subway aircraft wheelchair scooter drone" speed="22.22" length="9.41" shape="1294.53,535.40 1285.34,537.42"/>
    </edge>
    <edge id=":10010897694_5" function="internal">
        <lane id=":10010897694_5_0" index="0" disallow="tram rail_urban rail rail_electric rail_fast ship container cable_car subway aircraft wheelchair scooter drone" speed="3.65" length="1.44" shape="1294.53,535.40 1293.16,534.95"/>
    </edge>
    <edge id=":10010897694_9" function="internal">
        <lane id=":10010897694_9_0" index="0" disallow="tram rail_urban rail rail_electric rail_fast ship container cable_car subway aircraft wheelchair scooter drone" speed="3.65" length="3.23" shape="1293.16,534.95 1292.56,534.29 1292.74,533.41 1293.68,532.32"/>
    </edge>
    <edge id=":10010897694_6" function="internal">
        <lane id=":10010897694_6_0" index="0" disallow="tram rail_urban rail rail_electric rail_fast ship container cable_car subway aircraft wheelchair scooter drone" speed="22.22" length="9.19" shape="1284.70,534.29 1293.68,532.32"/>
    </edge>
    <edge id=":10010897694_7" function="internal">
        <lane id=":10010897694_7_0" index="0" disallow="tram rail_urban rail rail_electric rail_fast ship container cable_car subway aircraft wheelchair scooter drone" speed="7.89" length="4.00" shape="1284.70,534.29 1288.69,534.05"/>
    </edge>
    <edge id=":10010897694_8" function="internal">
        <lane id=":10010897694_8_0" index="0" disallow="tram rail_urban rail rail_electric rail_fast ship container cable_car subway aircraft wheelchair scooter drone" speed="3.65" length="1.44" shape="1284.70,534.29 1286.04,534.83"/>
    </edge>
    <edge id=":10010897694_10" function="internal">
        <lane id=":10010897694_10_0" index="0" disallow="tram rail_urban rail rail_electric rail_fast ship container cable_car subway aircraft wheelchair scooter drone" speed="7.89" length="10.45" shape="1288.69,534.05 1291.72,535.17 1293.78,537.65 1294.88,541.49"/>
    </edge>
    <edge id=":10010897694_11" function="internal">
        <lane id=":10010897694_11_0" index="0" disallow="tram rail_urban rail rail_electric rail_fast ship container cable_car subway aircraft wheelchair scooter drone" speed="3.65" length="3.23" shape="1286.04,534.83 1286.59,535.53 1286.36,536.39 1285.34,537.42"/>
    </edge>
    <edge id=":10010897695_0" function="internal">
        <lane id=":10010897695_0_0" index="0" disallow="tram rail_urban rail rail_electric rail_fast ship container cable_car subway aircraft wheelchair scooter drone" speed="13.89" length="0.24" shape="1307.64,597.86 1307.57,597.86 1307.52,597.87 1307.47,597.87 1307.40,597.87"/>
    </edge>
    <edge id=":10010897695_1" function="internal">
        <lane id=":10010897695_1_0" index="0" disallow="tram rail_urban rail rail_electric rail_fast ship container cable_car subway aircraft wheelchair scooter drone" speed="13.89" length="0.10" shape="1307.46,594.67 1307.46,594.66"/>
    </edge>
    <edge id=":10010897696_0" function="internal">
        <lane id=":10010897696_0_0" index="0" disallow="tram rail_urban rail rail_electric rail_fast ship container cable_car subway aircraft wheelchair scooter drone" speed="6.64" length="9.20" shape="1325.37,534.85 1324.44,532.47 1323.00,530.93 1321.05,530.23 1318.59,530.36"/>
    </edge>
    <edge id=":10010897696_1" function="internal">
        <lane id=":10010897696_1_0" index="0" disallow="tram rail_urban rail rail_electric rail_fast ship container cable_car subway aircraft wheelchair scooter drone" speed="7.94" length="14.32" shape="1325.37,534.85 1325.00,530.92 1326.00,527.86 1328.35,525.67 1332.06,524.33"/>
    </edge>
    <edge id=":10010897696_2" function="internal">
        <lane id=":10010897696_2_0" index="0" disallow="tram rail_urban rail rail_electric rail_fast ship container cable_car subway aircraft wheelchair scooter drone" speed="3.65" length="4.67" shape="1325.37,534.85 1325.87,533.50 1326.55,532.92 1327.42,533.12 1328.48,534.10"/>
    </edge>
    <edge id=":10010897696_3" function="internal">
        <lane id=":10010897696_3_0" index="0" disallow="tram rail_urban rail rail_electric rail_fast ship container cable_car subway aircraft wheelchair scooter drone" speed="6.44" length="9.03" shape="1332.70,527.47 1330.36,528.31 1328.88,529.70 1328.25,531.63 1328.48,534.10"/>
    </edge>
    <edge id=":10010897696_4" function="internal">
        <lane id=":10010897696_4_0" index="0" disallow="tram rail_urban rail rail_electric rail_fast ship container cable_car subway aircraft wheelchair scooter drone" speed="22.22" length="14.40" shape="1332.70,527.47 1318.59,530.36"/>
    </edge>
    <edge id=":10010897696_5" function="internal">
        <lane id=":10010897696_5_0" index="0" disallow="tram rail_urban rail rail_electric rail_fast ship container cable_car subway aircraft wheelchair scooter drone" speed="3.65" length="1.44" shape="1332.70,527.47 1331.36,526.93"/>
    </edge>
    <edge id=":10010897696_9" function="internal">
        <lane id=":10010897696_9_0" index="0" disallow="tram rail_urban rail rail_electric rail_fast ship container cable_car subway aircraft wheelchair scooter drone" speed="3.65" length="3.23" shape="1331.36,526.93 1330.81,526.22 1331.04,525.36 1332.06,524.33"/>
    </edge>
    <edge id=":10010897696_6" function="internal">
        <lane id=":10010897696_6_0" index="0" disallow="tram rail_urban rail rail_electric rail_fast ship container cable_car subway aircraft wheelchair scooter drone" speed="22.22" length="14.40" shape="1317.95,527.23 1332.06,524.33"/>
    </edge>
    <edge id=":10010897696_7" function="internal">
        <lane id=":10010897696_7_0" index="0" disallow="tram rail_urban rail rail_electric rail_fast ship container cable_car subway aircraft wheelchair scooter drone" speed="8.11" length="4.01" shape="1317.95,527.23 1321.78,527.01 1321.94,527.06"/>
    </edge>
    <edge id=":10010897696_8" function="internal">
        <lane id=":10010897696_8_0" index="0" disallow="tram rail_urban rail rail_electric rail_fast ship container cable_car subway aircraft wheelchair scooter drone" speed="3.65" length="1.44" shape="1317.95,527.23 1319.28,527.77"/>
    </edge>
    <edge id=":10010897696_10" function="internal">
        <lane id=":10010897696_10_0" index="0" disallow="tram rail_urban rail rail_electric rail_fast ship container cable_car subway aircraft wheelchair scooter drone" speed="8.11" length="10.23" shape="1321.94,527.06 1324.81,528.08 1327.05,530.44 1328.48,534.10"/>
    </edge>
    <edge id=":10010897696_11" function="internal">
        <lane id=":10010897696_11_0" index="0" disallow="tram rail_urban rail rail_electric rail_fast ship container cable_car subway aircraft wheelchair scooter drone" speed="3.65" length="3.23" shape="1319.28,527.77 1319.84,528.47 1319.61,529.34 1318.59,530.36"/>
    </edge>
    <edge id=":10010897697_0" function="internal">
        <lane id=":10010897697_0_0" index="0" disallow="tram rail_urban rail rail_electric rail_fast ship container cable_car subway aircraft wheelchair scooter drone" speed="3.65" length="4.67" shape="1332.44,550.60 1331.94,551.95 1331.26,552.53 1330.39,552.33 1329.33,551.35"/>
    </edge>
    <edge id=":10010897698_0" function="internal">
        <lane id=":10010897698_0_0" index="0" disallow="tram rail_urban rail rail_electric rail_fast ship container cable_car subway aircraft wheelchair scooter drone" speed="6.47" length="9.03" shape="1350.61,529.53 1349.81,527.18 1348.45,525.67 1346.53,524.99 1344.06,525.14"/>
    </edge>
    <edge id=":10010897698_1" function="internal">
        <lane id=":10010897698_1_0" index="0" disallow="tram rail_urban rail rail_electric rail_fast ship container cable_car subway aircraft wheelchair scooter drone" speed="8.05" length="14.22" shape="1350.61,529.53 1350.43,525.63 1351.52,522.59 1353.88,520.41 1357.52,519.11"/>
    </edge>
    <edge id=":10010897698_2" function="internal">
        <lane id=":10010897698_2_0" index="0" disallow="tram rail_urban rail rail_electric rail_fast ship container cable_car subway aircraft wheelchair scooter drone" speed="3.65" length="4.67" shape="1350.61,529.53 1351.17,528.21 1351.89,527.66 1352.75,527.91 1353.75,528.94"/>
    </edge>
    <edge id=":10010897698_3" function="internal">
        <lane id=":10010897698_3_0" index="0" disallow="tram rail_urban rail rail_electric rail_fast ship container cable_car subway aircraft wheelchair scooter drone" speed="6.57" length="9.11" shape="1358.16,522.24 1355.84,523.08 1354.33,524.48 1353.64,526.43 1353.75,528.94"/>
    </edge>
    <edge id=":10010897698_4" function="internal">
        <lane id=":10010897698_4_0" index="0" disallow="tram rail_urban rail rail_electric rail_fast ship container cable_car subway aircraft wheelchair scooter drone" speed="22.22" length="14.40" shape="1358.16,522.24 1344.06,525.14"/>
    </edge>
    <edge id=":10010897698_5" function="internal">
        <lane id=":10010897698_5_0" index="0" disallow="tram rail_urban rail rail_electric rail_fast ship container cable_car subway aircraft wheelchair scooter drone" speed="3.65" length="1.44" shape="1358.16,522.24 1356.83,521.70"/>
    </edge>
    <edge id=":10010897698_9" function="internal">
        <lane id=":10010897698_9_0" index="0" disallow="tram rail_urban rail rail_electric rail_fast ship container cable_car subway aircraft wheelchair scooter drone" speed="3.65" length="3.23" shape="1356.83,521.70 1356.28,520.99 1356.51,520.13 1357.52,519.11"/>
    </edge>
    <edge id=":10010897698_6" function="internal">
        <lane id=":10010897698_6_0" index="0" disallow="tram rail_urban rail rail_electric rail_fast ship container cable_car subway aircraft wheelchair scooter drone" speed="22.22" length="14.40" shape="1343.41,522.00 1357.52,519.11"/>
    </edge>
    <edge id=":10010897698_7" function="internal">
        <lane id=":10010897698_7_0" index="0" disallow="tram rail_urban rail rail_electric rail_fast ship container cable_car subway aircraft wheelchair scooter drone" speed="7.97" length="4.08" shape="1343.41,522.00 1347.32,521.76 1347.48,521.82"/>
    </edge>
    <edge id=":10010897698_8" function="internal">
        <lane id=":10010897698_8_0" index="0" disallow="tram rail_urban rail rail_electric rail_fast ship container cable_car subway aircraft wheelchair scooter drone" speed="3.65" length="1.44" shape="1343.41,522.00 1344.75,522.54"/>
    </edge>
    <edge id=":10010897698_10" function="internal">
        <lane id=":10010897698_10_0" index="0" disallow="tram rail_urban rail rail_electric rail_fast ship container cable_car subway aircraft wheelchair scooter drone" speed="7.97" length="10.17" shape="1347.48,521.82 1350.35,522.84 1352.49,525.23 1353.75,528.94"/>
    </edge>
    <edge id=":10010897698_11" function="internal">
        <lane id=":10010897698_11_0" index="0" disallow="tram rail_urban rail rail_electric rail_fast ship container cable_car subway aircraft wheelchair scooter drone" speed="3.65" length="3.23" shape="1344.75,522.54 1345.30,523.25 1345.07,524.11 1344.06,525.14"/>
    </edge>
    <edge id=":10010897699_0" function="internal">
        <lane id=":10010897699_0_0" index="0" disallow="tram rail_urban rail rail_electric rail_fast ship container cable_car subway aircraft wheelchair scooter drone" speed="3.65" length="4.67" shape="1356.48,543.41 1355.91,544.74 1355.20,545.28 1354.34,545.03 1353.33,544.00"/>
    </edge>
    <edge id=":10010897700_0" function="internal">
        <lane id=":10010897700_0_0" index="0" allow="pedestrian delivery bicycle" speed="5.03" length="5.01" shape="1404.27,516.32 1403.83,515.01 1403.08,514.17 1402.02,513.78 1400.65,513.85"/>
    </edge>
    <edge id=":10010897700_1" function="internal">
        <lane id=":10010897700_1_0" index="0" allow="pedestrian delivery bicycle" speed="6.89" length="10.16" shape="1404.27,516.32 1404.16,513.52 1404.95,511.36 1406.65,509.82 1409.26,508.91"/>
    </edge>
    <edge id=":10010897700_2" function="internal">
        <lane id=":10010897700_2_0" index="0" allow="pedestrian delivery bicycle" speed="3.65" length="4.67" shape="1404.27,516.32 1404.84,514.99 1405.56,514.45 1406.41,514.70 1407.42,515.74"/>
    </edge>
    <edge id=":10010897700_3" function="internal">
        <lane id=":10010897700_3_0" index="0" allow="pedestrian delivery bicycle" speed="5.08" length="5.04" shape="1409.88,512.05 1408.59,512.50 1407.75,513.27 1407.36,514.35 1407.42,515.74"/>
    </edge>
    <edge id=":10010897700_4" function="internal">
        <lane id=":10010897700_4_0" index="0" disallow="tram rail_urban rail rail_electric rail_fast ship container cable_car subway aircraft wheelchair scooter drone" speed="22.22" length="9.40" shape="1409.88,512.05 1400.65,513.85"/>
    </edge>
    <edge id=":10010897700_5" function="internal">
        <lane id=":10010897700_5_0" index="0" disallow="tram rail_urban rail rail_electric rail_fast ship container cable_car subway aircraft wheelchair scooter drone" speed="22.22" length="9.40" shape="1400.04,510.71 1409.26,508.91"/>
    </edge>
    <edge id=":10010897700_6" function="internal">
        <lane id=":10010897700_6_0" index="0" allow="pedestrian delivery bicycle" speed="6.85" length="3.27" shape="1400.04,510.71 1402.84,510.57 1403.28,510.73"/>
    </edge>
    <edge id=":10010897700_7" function="internal">
        <lane id=":10010897700_7_0" index="0" allow="pedestrian delivery bicycle" speed="6.85" length="6.94" shape="1403.28,510.73 1405.00,511.36 1406.53,513.08 1407.42,515.74"/>
    </edge>
    <edge id=":10010897701_0" function="internal">
        <lane id=":10010897701_0_0" index="0" allow="pedestrian delivery bicycle" speed="3.65" length="4.67" shape="1414.10,552.14 1413.53,553.47 1412.82,554.00 1411.96,553.76 1410.95,552.72"/>
    </edge>
    <edge id=":10010915872_0" function="internal">
        <lane id=":10010915872_0_0" index="0" allow="pedestrian delivery bicycle" speed="3.65" length="4.67" shape="1449.99,452.51 1451.25,453.21 1451.71,453.98 1451.38,454.81 1450.25,455.70"/>
    </edge>
    <edge id=":10010915873_0" function="internal">
        <lane id=":10010915873_0_0" index="0" allow="pedestrian delivery bicycle" speed="3.65" length="4.67" shape="1401.49,459.56 1400.24,458.86 1399.77,458.09 1400.11,457.26 1401.24,456.37"/>
    </edge>
    <edge id=":10017443665_0" function="internal">
        <lane id=":10017443665_0_0" index="0" disallow="tram rail_urban rail rail_electric rail_fast ship container cable_car subway aircraft wheelchair scooter drone" speed="3.65" length="4.67" shape="752.67,463.08 751.52,462.21 751.17,461.38 751.62,460.61 752.86,459.88"/>
    </edge>
    <edge id=":10017443676_0" function="internal">
        <lane id=":10017443676_0_0" index="0" disallow="tram rail_urban rail rail_electric rail_fast ship container cable_car subway aircraft wheelchair scooter drone" speed="5.85" length="9.12" shape="1023.94,423.97 1022.99,421.49 1021.55,420.23 1019.65,420.20 1017.28,421.40"/>
    </edge>
    <edge id=":10017443676_1" function="internal">
        <lane id=":10017443676_1_0" index="0" disallow="tram rail_urban rail rail_electric rail_fast ship container cable_car subway aircraft wheelchair scooter drone" speed="8.34" length="15.10" shape="1023.94,423.97 1023.34,419.54 1023.77,415.78 1025.21,412.70 1027.69,410.30"/>
    </edge>
    <edge id=":10017443676_2" function="internal">
        <lane id=":10017443676_2_0" index="0" disallow="tram rail_urban rail rail_electric rail_fast ship container cable_car subway aircraft wheelchair scooter drone" speed="2.78" length="4.67" shape="1023.94,423.97 1024.45,422.62 1025.14,422.05 1026.01,422.26 1027.06,423.24"/>
    </edge>
    <edge id=":10017443676_3" function="internal">
        <lane id=":10017443676_3_0" index="0" disallow="tram rail_urban rail rail_electric rail_fast ship container cable_car subway aircraft wheelchair scooter drone" speed="8.34" length="11.27" shape="1029.51,412.93 1027.79,414.66 1026.81,416.96 1026.56,419.82 1027.06,423.24"/>
    </edge>
    <edge id=":10017443676_4" function="internal">
        <lane id=":10017443676_4_0" index="0" disallow="tram rail_urban rail rail_electric rail_fast ship container cable_car subway aircraft wheelchair scooter drone" speed="13.89" length="14.88" shape="1029.51,412.93 1017.28,421.40"/>
    </edge>
    <edge id=":10017443676_5" function="internal">
        <lane id=":10017443676_5_0" index="0" disallow="tram rail_urban rail rail_electric rail_fast ship container cable_car subway aircraft wheelchair scooter drone" speed="3.65" length="1.44" shape="1029.51,412.93 1028.07,412.95"/>
    </edge>
    <edge id=":10017443676_9" function="internal">
        <lane id=":10017443676_9_0" index="0" disallow="tram rail_urban rail rail_electric rail_fast ship container cable_car subway aircraft wheelchair scooter drone" speed="3.65" length="3.23" shape="1028.07,412.95 1027.28,412.52 1027.16,411.64 1027.69,410.30"/>
    </edge>
    <edge id=":10017443676_6" function="internal">
        <lane id=":10017443676_6_0" index="0" disallow="tram rail_urban rail rail_electric rail_fast ship container cable_car subway aircraft wheelchair scooter drone" speed="13.89" length="14.88" shape="1015.45,418.77 1027.69,410.30"/>
    </edge>
    <edge id=":10017443676_7" function="internal">
        <lane id=":10017443676_7_0" index="0" disallow="tram rail_urban rail rail_electric rail_fast ship container cable_car subway aircraft wheelchair scooter drone" speed="7.50" length="4.63" shape="1015.45,418.77 1019.59,416.69"/>
    </edge>
    <edge id=":10017443676_8" function="internal">
        <lane id=":10017443676_8_0" index="0" disallow="tram rail_urban rail rail_electric rail_fast ship container cable_car subway aircraft wheelchair scooter drone" speed="3.65" length="1.44" shape="1015.45,418.77 1016.90,418.74"/>
    </edge>
    <edge id=":10017443676_10" function="internal">
        <lane id=":10017443676_10_0" index="0" disallow="tram rail_urban rail rail_electric rail_fast ship container cable_car subway aircraft wheelchair scooter drone" speed="7.50" length="11.25" shape="1019.59,416.69 1022.90,416.74 1025.39,418.93 1027.06,423.24"/>
    </edge>
    <edge id=":10017443676_11" function="internal">
        <lane id=":10017443676_11_0" index="0" disallow="tram rail_urban rail rail_electric rail_fast ship container cable_car subway aircraft wheelchair scooter drone" speed="3.65" length="3.23" shape="1016.90,418.74 1017.68,419.17 1017.81,420.06 1017.28,421.40"/>
    </edge>
    <edge id=":10017443677_0" function="internal">
        <lane id=":10017443677_0_0" index="0" disallow="tram rail_urban rail rail_electric rail_fast ship container cable_car subway aircraft wheelchair scooter drone" speed="2.78" length="4.67" shape="1030.36,437.38 1029.86,438.73 1029.17,439.30 1028.30,439.10 1027.25,438.11"/>
    </edge>
    <edge id=":10017990202_0" function="internal">
        <lane id=":10017990202_0_0" index="0" disallow="tram rail_urban rail rail_electric rail_fast ship container cable_car subway aircraft wheelchair scooter drone" speed="3.65" length="4.67" shape="1359.50,585.18 1358.18,584.58 1357.66,583.86 1357.93,583.00 1358.99,582.02"/>
    </edge>
    <edge id=":10017990206_0" function="internal">
        <lane id=":10017990206_0_0" index="0" disallow="tram rail_urban rail rail_electric rail_fast ship container cable_car subway aircraft wheelchair scooter drone" speed="6.89" length="10.01" shape="1349.22,593.67 1347.13,594.05 1345.56,595.39 1344.50,597.68 1343.97,600.93"/>
    </edge>
    <edge id=":10017990206_1" function="internal">
        <lane id=":10017990206_1_0" index="0" disallow="tram rail_urban rail rail_electric rail_fast ship container cable_car subway aircraft wheelchair scooter drone" speed="13.89" length="13.75" shape="1349.22,593.67 1345.68,593.79 1342.38,594.25 1339.08,594.71 1335.53,594.85"/>
    </edge>
    <edge id=":10017990206_2" function="internal">
        <lane id=":10017990206_2_0" index="0" disallow="tram rail_urban rail rail_electric rail_fast ship container cable_car subway aircraft wheelchair scooter drone" speed="3.76" length="1.92" shape="1349.22,593.67 1347.68,593.33 1347.43,593.10"/>
    </edge>
    <edge id=":10017990206_9" function="internal">
        <lane id=":10017990206_9_0" index="0" disallow="tram rail_urban rail rail_electric rail_fast ship container cable_car subway aircraft wheelchair scooter drone" speed="3.76" length="3.18" shape="1347.43,593.10 1346.96,592.67 1347.05,591.70 1347.96,590.42"/>
    </edge>
    <edge id=":10017990206_3" function="internal">