<?xml version="1.0" encoding="UTF-8"?>
<nodes xmlns:xsi="http://www.w3.org/2001/XMLSchema-instance" xsi:noNamespaceSchemaLocation="http://sumo.dlr.de/xsd/nodes_file.xsd">
    <node id="n_0_0" x="0" y="0" type="traffic_light"/>
    <node id="n_0_1" x="0" y="200" type="traffic_light"/>
    <node id="n_0_2" x="0" y="400" type="traffic_light"/>
    <node id="n_1_0" x="200" y="0" type="traffic_light"/>
    <node id="n_1_1" x="200" y="200" type="traffic_light"/>
    <node id="n_1_2" x="200" y="400" type="traffic_light"/>
    <node id="n_2_0" x="400" y="0" type="traffic_light"/>
    <node id="n_2_1" x="400" y="200" type="traffic_light"/>
    <node id="n_2_2" x="400" y="400" type="traffic_light"/>
</nodes>