<?xml version="1.0" encoding="UTF-8"?>
<routes xmlns:xsi="http://www.w3.org/2001/XMLSchema-instance" xsi:noNamespaceSchemaLocation="http://sumo.dlr.de/xsd/routes_file.xsd">
    
    <!-- Vehicle Types -->
    <vType id="car" accel="2.6" decel="4.5" sigma="0.5" length="5" minGap="2.5" maxSpeed="55.56"/>
    <vType id="emergency" accel="3.0" decel="5.0" sigma="0.2" length="7.0" maxSpeed="69.44" color="1,0,0"/>
    <vType id="bus" accel="1.5" decel="3.5" sigma="0.3" length="12.0" maxSpeed="44.44"/>
    
    <!-- Routes -->
    <route id="horizontal_1" edges="h_0_0_to_1_0 h_1_0_to_2_0"/>
    <route id="horizontal_2" edges="h_2_0_to_1_0 h_1_0_to_0_0"/>
    <route id="vertical_1" edges="v_0_0_to_0_1"/>
    <route id="vertical_2" edges="v_0_1_to_0_0"/>
    <route id="through_1" edges="v_1_0_to_1_1 v_1_1_to_1_0"/>
    <route id="through_2" edges="v_1_1_to_1_0 v_1_0_to_1_1"/>
    
    <!-- Traffic flows -->
    <flow id="flow_h1" route="horizontal_1" begin="0" end="3600" vehsPerHour="400" type="car"/>
    <flow id="flow_h2" route="horizontal_2" begin="0" end="3600" vehsPerHour="350" type="car"/>
    <flow id="flow_v1" route="vertical_1" begin="0" end="3600" vehsPerHour="200" type="car"/>
    <flow id="flow_v2" route="vertical_2" begin="0" end="3600" vehsPerHour="250" type="car"/>
    <flow id="flow_t1" route="through_1" begin="0" end="3600" vehsPerHour="300" type="car"/>
    <flow id="flow_t2" route="through_2" begin="0" end="3600" vehsPerHour="280" type="car"/>
    
    <!-- Emergency vehicles (occasional) -->
    <flow id="emergency_flow" route="horizontal_1" begin="300" end="3600" period="600" type="emergency"/>
    
    <!-- Bus routes -->
    <flow id="bus_flow" route="horizontal_1" begin="120" end="3600" period="300" type="bus"/>
    
    <!-- Basic flow -->
    <flow id="flow0" type="car" begin="0" end="3600" vehsPerHour="360" from="1" to="2"/>
    
</routes>