<?xml version="1.0" encoding="UTF-8"?>

<!-- generated on 2025-05-22 06:41:24.441163 by randomTrips.py v1_23_1+0000-676720d13f6
<configuration>
    <net-file value="map.net.xml"/>
    <route-file value="routes.rou.xml"/>
    <end value="1000.0"/>
</configuration>
-->

<routes xmlns:xsi="http://www.w3.org/2001/XMLSchema-instance" xsi:noNamespaceSchemaLocation="http://sumo.dlr.de/xsd/routes_file.xsd">
    <trip id="0" depart="0.00" from="157572494#1" to="-1082289079#1"/>
    <trip id="1" depart="1.00" from="-224623108#1" to="-224623109#0"/>
    <trip id="2" depart="2.00" from="224623110#4" to="224623078#0"/>
    <trip id="3" depart="3.00" from="36913445#3" to="-1094038170#2"/>
    <trip id="4" depart="4.00" from="-400478704#1" to="-1082289080#0"/>
    <trip id="5" depart="5.00" from="-172924456#5" to="1094015657"/>
    <trip id="6" depart="6.00" from="-1082289079#1" to="-224623101#1"/>
    <trip id="7" depart="7.00" from="157572494#6" to="1094038174#1"/>
    <trip id="8" depart="8.00" from="-224623078#0" to="1297660724#0"/>
    <trip id="9" depart="9.00" from="26807590#6" to="-1069545370#0"/>
    <trip id="10" depart="10.00" from="26807590#4" to="224623078#9"/>
    <trip id="11" depart="11.00" from="-26807587#3" to="-172924456#0"/>
    <trip id="12" depart="12.00" from="408519782" to="-36913442#4"/>
    <trip id="13" depart="13.00" from="-1094015656" to="-1102777038#0"/>
    <trip id="14" depart="14.00" from="324405059#2" to="1312156096"/>
    <trip id="15" depart="15.00" from="26807590#5" to="224623108#1"/>
    <trip id="16" depart="16.00" from="1094038170#2" to="688595931#2"/>
    <trip id="17" depart="17.00" from="-36913442#4" to="1102777038#1"/>
    <trip id="18" depart="18.00" from="30810606#1" to="133488796#1"/>
    <trip id="19" depart="19.00" from="363451971#3" to="1227777952#3"/>
    <trip id="20" depart="20.00" from="224623102#2" to="-1093787360#0"/>
    <trip id="21" depart="21.00" from="-224623078#11" to="-26807587#1"/>
    <trip id="22" depart="22.00" from="-1093787371" to="-224623110#1"/>
    <trip id="23" depart="23.00" from="-1094015660" to="-224632846"/>
    <trip id="24" depart="24.00" from="1351789580" to="-36926703#0"/>
    <trip id="25" depart="25.00" from="-324405057#1" to="-224623102#3"/>
    <trip id="26" depart="26.00" from="-224623102#3" to="400478704#0"/>
    <trip id="27" depart="27.00" from="157572494#5" to="1324288907"/>
    <trip id="28" depart="28.00" from="-1246410562" to="224623108#1"/>
    <trip id="29" depart="29.00" from="-1227777952#2" to="-39022397"/>
    <trip id="30" depart="30.00" from="764500259#1" to="133489253#5"/>
    <trip id="31" depart="31.00" from="1165345726" to="224623078#2"/>
    <trip id="32" depart="32.00" from="324405059#0" to="224632844#1"/>
    <trip id="33" depart="33.00" from="-224623078#2" to="-1082289080#1"/>
    <trip id="34" depart="34.00" from="-224632843" to="-224632844#1"/>
    <trip id="35" depart="35.00" from="-172924456#1" to="408519778"/>
    <trip id="36" depart="36.00" from="36913444#0" to="-26807590#7"/>
    <trip id="37" depart="37.00" from="172924456#1" to="-688595931#2"/>
    <trip id="38" depart="38.00" from="36926703#2" to="1093092655"/>
    <trip id="39" depart="39.00" from="-224623102#2" to="-224623114#0"/>
    <trip id="40" depart="40.00" from="1183672117" to="-224632090"/>
    <trip id="41" depart="41.00" from="1312156094#0" to="36913445#7"/>
    <trip id="42" depart="42.00" from="-36913445#8" to="-224623108#1"/>
    <trip id="43" depart="43.00" from="764502951#3" to="1094015659"/>
    <trip id="44" depart="44.00" from="-1094015655" to="-1093787360#0"/>
    <trip id="45" depart="45.00" from="-1094015665" to="133488796#6"/>
    <trip id="46" depart="46.00" from="26807587#3" to="1069545370#1"/>
    <trip id="47" depart="47.00" from="-1093787361" to="-400478704#0"/>
    <trip id="48" depart="48.00" from="764502951#3" to="1094015675#0"/>
    <trip id="49" depart="49.00" from="661904601" to="363451971#2"/>
    <trip id="50" depart="50.00" from="-1069545370#2" to="224623102#3"/>
    <trip id="51" depart="51.00" from="224623078#7" to="1094038170#2"/>
    <trip id="52" depart="52.00" from="-224623102#3" to="133489253#5"/>
    <trip id="53" depart="53.00" from="-1094015667" to="1082289078#1"/>
    <trip id="54" depart="54.00" from="1069545369#1" to="408519782"/>
    <trip id="55" depart="55.00" from="36913444#0" to="-224632092"/>
    <trip id="56" depart="56.00" from="1093787360#2" to="-224623078#4"/>
    <trip id="57" depart="57.00" from="36926703#1" to="36913442#4"/>
    <trip id="58" depart="58.00" from="-224623112#1" to="133489253#4"/>
    <trip id="59" depart="59.00" from="133488796#4" to="-133488796#6"/>
    <trip id="60" depart="60.00" from="224632844#0" to="1094038171#0"/>
    <trip id="61" depart="61.00" from="224639758#0" to="1094015675#1"/>
    <trip id="62" depart="62.00" from="-1069545369#0" to="-324405057#1"/>
    <trip id="63" depart="63.00" from="-1082289078#0" to="37837696#1"/>
    <trip id="64" depart="64.00" from="36913444#1" to="30810603#3"/>
    <trip id="65" depart="65.00" from="-224623114#3" to="-1093787365"/>
    <trip id="66" depart="66.00" from="36913444#1" to="408519780"/>
    <trip id="67" depart="67.00" from="-1094014091#1" to="1093787368"/>
    <trip id="68" depart="68.00" from="-1093787365" to="224623114#2"/>
    <trip id="69" depart="69.00" from="224632844#2" to="-1297660724#1"/>
    <trip id="70" depart="70.00" from="1082289079#1" to="1102777038#0"/>
    <trip id="71" depart="71.00" from="-224623102#2" to="36913442#5"/>
    <trip id="72" depart="72.00" from="-400478704#1" to="-224623105"/>
    <trip id="73" depart="73.00" from="1094038171#0" to="224623108#1"/>
    <trip id="74" depart="74.00" from="-133488796#3" to="-26807590#6"/>
    <trip id="75" depart="75.00" from="764502951#2" to="133489253#9"/>
    <trip id="76" depart="76.00" from="-688693176" to="1094015663"/>
    <trip id="77" depart="77.00" from="-1094038170#0" to="-224623109#1"/>
    <trip id="78" depart="78.00" from="-26807587#1" to="1297660724#0"/>
    <trip id="79" depart="79.00" from="-224623078#2" to="-224623108#2"/>
    <trip id="80" depart="80.00" from="-1093787367" to="133489253#0"/>
    <trip id="81" depart="81.00" from="-224623078#2" to="36926703#1"/>
    <trip id="82" depart="82.00" from="363451971#2" to="-1094015658"/>
    <trip id="83" depart="83.00" from="-224623078#6" to="172924456#3"/>
    <trip id="84" depart="84.00" from="-172924456#3" to="-1297660724#2"/>
    <trip id="85" depart="85.00" from="37837696#2" to="1227777952#0"/>
    <trip id="86" depart="86.00" from="1082289078#1" to="224632845"/>
    <trip id="87" depart="87.00" from="26807590#5" to="-224623078#9"/>
    <trip id="88" depart="88.00" from="-1094015658" to="1082289078#0"/>
    <trip id="89" depart="89.00" from="-408521141#0" to="1093787359"/>
    <trip id="90" depart="90.00" from="224623110#1" to="172924456#5"/>
    <trip id="91" depart="91.00" from="760886640#0" to="-1102777038#1"/>
    <trip id="92" depart="92.00" from="-36926703#0" to="-36913442#5"/>
    <trip id="93" depart="93.00" from="363451971#3" to="-224623114#1"/>
    <trip id="94" depart="94.00" from="-1312156095" to="1092785339#0"/>
    <trip id="95" depart="95.00" from="-400478704#1" to="-224632846"/>
    <trip id="96" depart="96.00" from="-224623090" to="36982658#1"/>
    <trip id="97" depart="97.00" from="1052609698#0" to="363451971#3"/>
    <trip id="98" depart="98.00" from="1111947670" to="-1093787360#2"/>
    <trip id="99" depart="99.00" from="764502952" to="30810606#1"/>
    <trip id="100" depart="100.00" from="42756974#1" to="37837696#0"/>
    <trip id="101" depart="101.00" from="324405059#3" to="-172924456#5"/>
    <trip id="102" depart="102.00" from="1092785339#0" to="-224623107#0"/>
    <trip id="103" depart="103.00" from="-36913445#9" to="-1093787368"/>
    <trip id="104" depart="104.00" from="-36913442#4" to="764500259#0"/>
    <trip id="105" depart="105.00" from="-224623102#2" to="224632845"/>
    <trip id="106" depart="106.00" from="1069545369#2" to="1069545370#2"/>
    <trip id="107" depart="107.00" from="408519782" to="764502951#3"/>
    <trip id="108" depart="108.00" from="113793002#1" to="224623102#1"/>
    <trip id="109" depart="109.00" from="-1183381221" to="-26807590#0"/>
    <trip id="110" depart="110.00" from="42756974#0" to="1227777952#4"/>
    <trip id="111" depart="111.00" from="1094038174#0" to="224623110#4"/>
    <trip id="112" depart="112.00" from="-1093787360#0" to="1292994290"/>
    <trip id="113" depart="113.00" from="1093787361" to="324405059#3"/>
    <trip id="114" depart="114.00" from="-1183672117" to="408521141#1"/>
    <trip id="115" depart="115.00" from="-1093787371" to="-224623078#7"/>
    <trip id="116" depart="116.00" from="1324288907" to="224623078#0"/>
    <trip id="117" depart="117.00" from="-224623078#5" to="-1227777952#3"/>
    <trip id="118" depart="118.00" from="36913445#2" to="-224623113#1"/>
    <trip id="119" depart="119.00" from="1324288907" to="133488796#2"/>
    <trip id="120" depart="120.00" from="-400478704#0" to="1246410562"/>
    <trip id="121" depart="121.00" from="1094015658" to="37837696#4"/>
    <trip id="122" depart="122.00" from="-133488796#5" to="224623102#0"/>
    <trip id="123" depart="123.00" from="-224623078#7" to="-688595931#2"/>
    <trip id="124" depart="124.00" from="224623078#2" to="-26807590#1"/>
    <trip id="125" depart="125.00" from="-224632843" to="224623112#1"/>
    <trip id="126" depart="126.00" from="-1093787367" to="1093092655"/>
    <trip id="127" depart="127.00" from="764502952" to="764502951#4"/>
    <trip id="128" depart="128.00" from="-1093787368" to="-224623105"/>
    <trip id="129" depart="129.00" from="-224623102#2" to="37837696#3"/>
    <trip id="130" depart="130.00" from="36913444#2" to="36913444#2"/>
    <trip id="131" depart="131.00" from="-324405057#1" to="-172924456#1"/>
    <trip id="132" depart="132.00" from="30810606#3" to="224623089#1"/>
    <trip id="133" depart="133.00" from="133488796#5" to="764500259#1"/>
    <trip id="134" depart="134.00" from="172924456#1" to="-1069545370#0"/>
    <trip id="135" depart="135.00" from="26807590#9" to="-26807590#1"/>
    <trip id="136" depart="136.00" from="172924456#5" to="400478704#1"/>
    <trip id="137" depart="137.00" from="-1094038174#1" to="-1227777952#1"/>
    <trip id="138" depart="138.00" from="-1094015664" to="1111947670"/>
    <trip id="139" depart="139.00" from="-224623108#0" to="1316618749"/>
    <trip id="140" depart="140.00" from="224623108#2" to="-224623102#0"/>
    <trip id="141" depart="141.00" from="133489253#9" to="-224632092"/>
    <trip id="142" depart="142.00" from="1092785339#1" to="36926703#1"/>
    <trip id="143" depart="143.00" from="324405059#1" to="-1094038174#0"/>
    <trip id="144" depart="144.00" from="-408521141#0" to="-224632845"/>
    <trip id="145" depart="145.00" from="-1069545369#1" to="224632843"/>
    <trip id="146" depart="146.00" from="157572494#0" to="-224632090"/>
    <trip id="147" depart="147.00" from="224623113#1" to="1102777038#1"/>
    <trip id="148" depart="148.00" from="-661904601" to="-1069545370#1"/>
    <trip id="149" depart="149.00" from="-1093787369" to="36913445#1"/>
    <trip id="150" depart="150.00" from="36913445#8" to="1094038174#1"/>
    <trip id="151" depart="151.00" from="31565098" to="1246410562"/>
    <trip id="152" depart="152.00" from="-113793002#1" to="-1297660724#0"/>
    <trip id="153" depart="153.00" from="-224623114#3" to="36913445#8"/>
    <trip id="154" depart="154.00" from="26807590#0" to="363451971#2"/>
    <trip id="155" depart="155.00" from="36913445#6" to="-224623102#3"/>
    <trip id="156" depart="156.00" from="-224623090" to="-113793002#0"/>
    <trip id="157" depart="157.00" from="224639758#1" to="36913445#10"/>
    <trip id="158" depart="158.00" from="-36926703#1" to="133488796#2"/>
    <trip id="159" depart="159.00" from="-1183381221" to="37837696#2"/>
    <trip id="160" depart="160.00" from="36913442#0" to="688595931#3"/>
    <trip id="161" depart="161.00" from="26807590#6" to="36913444#3"/>
    <trip id="162" depart="162.00" from="-1082289079#0" to="224623109#2"/>
    <trip id="163" depart="163.00" from="-224632852" to="37837696#2"/>
    <trip id="164" depart="164.00" from="26807590#2" to="36913442#1"/>
    <trip id="165" depart="165.00" from="26807590#6" to="-224632844#0"/>
    <trip id="166" depart="166.00" from="26807587#1" to="-1183381221"/>
    <trip id="167" depart="167.00" from="36913442#4" to="363451971#1"/>
    <trip id="168" depart="168.00" from="-224623078#1" to="26807590#6"/>
    <trip id="169" depart="169.00" from="1069545370#1" to="-26807590#3"/>
    <trip id="170" depart="170.00" from="26807590#0" to="-224623109#2"/>
    <trip id="171" depart="171.00" from="-1082289079#0" to="-224623089#0"/>
    <trip id="172" depart="172.00" from="-224632845" to="36913442#1"/>
    <trip id="173" depart="173.00" from="42756974#0" to="-224632846"/>
    <trip id="174" depart="174.00" from="157572494#2" to="-688693176"/>
    <trip id="175" depart="175.00" from="688595931#3" to="1094038170#1"/>
    <trip id="176" depart="176.00" from="39022397" to="-1227777952#1"/>
    <trip id="177" depart="177.00" from="42756974#1" to="-224623078#4"/>
    <trip id="178" depart="178.00" from="408519784" to="-224632844#0"/>
    <trip id="179" depart="179.00" from="-1094015665" to="1082289078#1"/>
    <trip id="180" depart="180.00" from="224623110#1" to="-26807590#7"/>
    <trip id="181" depart="181.00" from="133488796#3" to="1094015660"/>
    <trip id="182" depart="182.00" from="-36913445#10" to="1227777952#3"/>
    <trip id="183" depart="183.00" from="-224623101#0" to="224623101#0"/>
    <trip id="184" depart="184.00" from="-1069545369#0" to="37837696#0"/>
    <trip id="185" depart="185.00" from="1094038171#0" to="224623102#2"/>
    <trip id="186" depart="186.00" from="224623113#1" to="172924456#3"/>
    <trip id="187" depart="187.00" from="-26807590#8" to="-1094015657"/>
    <trip id="188" depart="188.00" from="224623078#0" to="-36913442#1"/>
    <trip id="189" depart="189.00" from="-224632091" to="324405059#1"/>
    <trip id="190" depart="190.00" from="224623109#0" to="-26807590#10"/>
    <trip id="191" depart="191.00" from="-224623114#4" to="1052609698#2"/>
    <trip id="192" depart="192.00" from="-36913445#9" to="-26807587#4"/>
    <trip id="193" depart="193.00" from="-1094038171#0" to="1069545370#1"/>
    <trip id="194" depart="194.00" from="400478704#0" to="224623078#1"/>
    <trip id="195" depart="195.00" from="36913445#8" to="133488796#0"/>
    <trip id="196" depart="196.00" from="-224623114#0" to="1094070168"/>
    <trip id="197" depart="197.00" from="-1069545369#0" to="-26807587#0"/>
    <trip id="198" depart="198.00" from="-688595931#0" to="1227777952#5"/>
    <trip id="199" depart="199.00" from="172924456#1" to="1093728337"/>
    <trip id="200" depart="200.00" from="1052609698#0" to="-224623107#0"/>
    <trip id="201" depart="201.00" from="1082289079#0" to="36913445#9"/>
    <trip id="202" depart="202.00" from="26807590#0" to="-224623078#0"/>
    <trip id="203" depart="203.00" from="-1094014091#0" to="1094015662#1"/>
    <trip id="204" depart="204.00" from="133489253#9" to="-36913442#3"/>
    <trip id="205" depart="205.00" from="30810603#0" to="224623112#0"/>
    <trip id="206" depart="206.00" from="224623078#3" to="-224623109#1"/>
    <trip id="207" depart="207.00" from="-133488796#2" to="-1082289079#0"/>
    <trip id="208" depart="208.00" from="-224623089#0" to="1093787361"/>
    <trip id="209" depart="209.00" from="324405059#3" to="-1094015662#0"/>
    <trip id="210" depart="210.00" from="-36926703#5" to="133489253#0"/>
    <trip id="211" depart="211.00" from="-133488796#0" to="224623078#8"/>
    <trip id="212" depart="212.00" from="1093092654#1" to="-224623113#0"/>
    <trip id="213" depart="213.00" from="172924456#2" to="-1069545369#2"/>
    <trip id="214" depart="214.00" from="224623114#3" to="224632091"/>
    <trip id="215" depart="215.00" from="-1094015664" to="1069545370#3"/>
    <trip id="216" depart="216.00" from="-1297660721" to="408519784"/>
    <trip id="217" depart="217.00" from="1094015656" to="-1093787360#2"/>
    <trip id="218" depart="218.00" from="-224623090" to="324405059#1"/>
    <trip id="219" depart="219.00" from="1069545370#0" to="26807587#5"/>
    <trip id="220" depart="220.00" from="224623078#1" to="764502951#0"/>
    <trip id="221" depart="221.00" from="1324288908" to="408519781#0"/>
    <trip id="222" depart="222.00" from="36913445#2" to="1324288908"/>
    <trip id="223" depart="223.00" from="224623109#0" to="1094015656"/>
    <trip id="224" depart="224.00" from="30810606#2" to="1094070168"/>
    <trip id="225" depart="225.00" from="36913445#5" to="224623110#2"/>
    <trip id="226" depart="226.00" from="1082289079#0" to="-224623115"/>
    <trip id="227" depart="227.00" from="-224623089#1" to="133489253#3"/>
    <trip id="228" depart="228.00" from="224632844#2" to="1094015665"/>
    <trip id="229" depart="229.00" from="133489253#6" to="-224632844#4"/>
    <trip id="230" depart="230.00" from="-1093787370" to="-26807587#0"/>
    <trip id="231" depart="231.00" from="-224623107#1" to="-31565098"/>
    <trip id="232" depart="232.00" from="1094038171#1" to="-1312156095"/>
    <trip id="233" depart="233.00" from="-224623078#3" to="224623078#7"/>
    <trip id="234" depart="234.00" from="224623102#3" to="-1094014092"/>
    <trip id="235" depart="235.00" from="-36926703#2" to="1094038173"/>
    <trip id="236" depart="236.00" from="-36926703#6" to="-224623102#1"/>
    <trip id="237" depart="237.00" from="-400478704#0" to="36926703#1"/>
    <trip id="238" depart="238.00" from="1312156094#0" to="224623078#7"/>
    <trip id="239" depart="239.00" from="363451971#0" to="224623114#4"/>
    <trip id="240" depart="240.00" from="-36913442#5" to="-1069545369#2"/>
    <trip id="241" depart="241.00" from="-26807590#2" to="224623112#1"/>
    <trip id="242" depart="242.00" from="324405059#5" to="408519782"/>
    <trip id="243" depart="243.00" from="-36926706" to="224623110#4"/>
    <trip id="244" depart="244.00" from="1102777038#0" to="1312156096"/>
    <trip id="245" depart="245.00" from="-224623078#0" to="-224623108#1"/>
    <trip id="246" depart="246.00" from="-688595931#3" to="-1082289080#0"/>
    <trip id="247" depart="247.00" from="-26807587#1" to="224623078#10"/>
    <trip id="248" depart="248.00" from="-36926703#0" to="-172924456#4"/>
    <trip id="249" depart="249.00" from="1069545370#5" to="-1297660724#0"/>
    <trip id="250" depart="250.00" from="133489253#3" to="-1082289079#2"/>
    <trip id="251" depart="251.00" from="-36913445#5" to="1165345385"/>
    <trip id="252" depart="252.00" from="-1082289079#2" to="133489253#6"/>
    <trip id="253" depart="253.00" from="-1094070168" to="1093728332"/>
    <trip id="254" depart="254.00" from="-1093728332" to="-39022397"/>
    <trip id="255" depart="255.00" from="-172924456#2" to="-324405058"/>
    <trip id="256" depart="256.00" from="224632092" to="-39022397"/>
    <trip id="257" depart="257.00" from="224623114#4" to="30810603#3"/>
    <trip id="258" depart="258.00" from="-224623095" to="-1094038170#0"/>
    <trip id="259" depart="259.00" from="-1082289078#0" to="1094038171#0"/>
    <trip id="260" depart="260.00" from="764502952" to="-36913445#4"/>
    <trip id="261" depart="261.00" from="157572494#6" to="224632844#4"/>
    <trip id="262" depart="262.00" from="172924456#0" to="224623113#1"/>
    <trip id="263" depart="263.00" from="408519779" to="-224623101#1"/>
    <trip id="264" depart="264.00" from="-1082289078#0" to="-133488796#6"/>
    <trip id="265" depart="265.00" from="-1094038170#2" to="172924456#3"/>
    <trip id="266" depart="266.00" from="1227777952#0" to="-224623108#1"/>
    <trip id="267" depart="267.00" from="224623102#0" to="224623114#5"/>
    <trip id="268" depart="268.00" from="-1227777952#4" to="1324288906"/>
    <trip id="269" depart="269.00" from="224623114#2" to="-1227777952#1"/>
    <trip id="270" depart="270.00" from="30810603#0" to="42756974#0"/>
    <trip id="271" depart="271.00" from="-1094015665" to="-1082289079#1"/>
    <trip id="272" depart="272.00" from="-224623114#5" to="224623078#1"/>
    <trip id="273" depart="273.00" from="408519782" to="-688595931#2"/>
    <trip id="274" depart="274.00" from="224623108#1" to="-1094015664"/>
    <trip id="275" depart="275.00" from="224623089#0" to="133488796#5"/>
    <trip id="276" depart="276.00" from="-1094015662#1" to="224632844#0"/>
    <trip id="277" depart="277.00" from="324405059#3" to="1312156094#1"/>
    <trip id="278" depart="278.00" from="-1094038170#0" to="764500259#0"/>
    <trip id="279" depart="279.00" from="238460348" to="-36913445#2"/>
    <trip id="280" depart="280.00" from="-661904601" to="-36926703#2"/>
    <trip id="281" depart="281.00" from="1093787362" to="-36913445#0"/>
    <trip id="282" depart="282.00" from="324405059#3" to="26807590#9"/>
    <trip id="283" depart="283.00" from="-1094015663" to="408521141#1"/>
    <trip id="284" depart="284.00" from="1351789580" to="30810603#2"/>
    <trip id="285" depart="285.00" from="224623102#3" to="1082289079#0"/>
    <trip id="286" depart="286.00" from="224623110#3" to="42756974#1"/>
    <trip id="287" depart="287.00" from="-224623107#1" to="26807590#2"/>
    <trip id="288" depart="288.00" from="1094038171#0" to="1093787367"/>
    <trip id="289" depart="289.00" from="-688595931#2" to="224623108#2"/>
    <trip id="290" depart="290.00" from="-224623107#0" to="324405059#3"/>
    <trip id="291" depart="291.00" from="30810606#2" to="-1094038170#2"/>
    <trip id="292" depart="292.00" from="36913444#2" to="-224623113#0"/>
    <trip id="293" depart="293.00" from="1069545370#3" to="1324288907"/>
    <trip id="294" depart="294.00" from="-36913442#4" to="-1082289079#2"/>
    <trip id="295" depart="295.00" from="324405059#4" to="-224623078#5"/>
    <trip id="296" depart="296.00" from="-172924456#2" to="26807587#3"/>
    <trip id="297" depart="297.00" from="-26807587#3" to="36913444#3"/>
    <trip id="298" depart="298.00" from="224623102#0" to="-224632845"/>
    <trip id="299" depart="299.00" from="-1069545370#1" to="408519780"/>
    <trip id="300" depart="300.00" from="-1094014091#1" to="224623102#2"/>
    <trip id="301" depart="301.00" from="1092785339#1" to="224623114#1"/>
    <trip id="302" depart="302.00" from="224623089#0" to="133489253#7"/>
    <trip id="303" depart="303.00" from="1092785339#2" to="238460348"/>
    <trip id="304" depart="304.00" from="-1094015656" to="-224623109#0"/>
    <trip id="305" depart="305.00" from="224623095" to="-26807590#3"/>
    <trip id="306" depart="306.00" from="1297660724#2" to="1093787360#2"/>
    <trip id="307" depart="307.00" from="1094015675#1" to="1069545370#3"/>
    <trip id="308" depart="308.00" from="224623114#1" to="-36913442#1"/>
    <trip id="309" depart="309.00" from="224623102#1" to="-224632844#2"/>
    <trip id="310" depart="310.00" from="-224623095" to="-1227777952#4"/>
    <trip id="311" depart="311.00" from="-1316618749" to="-1227777952#3"/>
    <trip id="312" depart="312.00" from="1094038170#2" to="224623114#3"/>
    <trip id="313" depart="313.00" from="-1312156094#0" to="-224623108#0"/>
    <trip id="314" depart="314.00" from="1091209637" to="224623107#0"/>
    <trip id="315" depart="315.00" from="688595931#1" to="1094015669"/>
    <trip id="316" depart="316.00" from="-224623109#3" to="-1111947670"/>
    <trip id="317" depart="317.00" from="-133488796#0" to="-224623109#2"/>
    <trip id="318" depart="318.00" from="-1297660724#1" to="-1069545370#3"/>
    <trip id="319" depart="319.00" from="1094038170#1" to="-224632844#4"/>
    <trip id="320" depart="320.00" from="688595931#0" to="1111947670"/>
    <trip id="321" depart="321.00" from="224623101#2" to="-1297660721"/>
    <trip id="322" depart="322.00" from="36913442#2" to="1093787371"/>
    <trip id="323" depart="323.00" from="36913442#4" to="1227777952#2"/>
    <trip id="324" depart="324.00" from="1082289078#0" to="1082289079#2"/>
    <trip id="325" depart="325.00" from="-1297660724#3" to="-1093787360#2"/>
    <trip id="326" depart="326.00" from="400478704#0" to="1093787362"/>
    <trip id="327" depart="327.00" from="30810603#2" to="-688693176"/>
    <trip id="328" depart="328.00" from="-1093787368" to="133489253#0"/>
    <trip id="329" depart="329.00" from="-1093728337" to="-133488796#5"/>
    <trip id="330" depart="330.00" from="1227777952#0" to="-26807590#2"/>
    <trip id="331" depart="331.00" from="764502951#2" to="-1227777952#3"/>
    <trip id="332" depart="332.00" from="224632844#1" to="1316618749"/>
    <trip id="333" depart="333.00" from="26807587#3" to="-224623109#2"/>
    <trip id="334" depart="334.00" from="1094015658" to="1092785339#1"/>
    <trip id="335" depart="335.00" from="1052609698#0" to="363451971#2"/>
    <trip id="336" depart="336.00" from="764502951#0" to="-26807590#3"/>
    <trip id="337" depart="337.00" from="133489253#3" to="1324288907"/>
    <trip id="338" depart="338.00" from="224623113#0" to="408519780"/>
    <trip id="339" depart="339.00" from="-1351789580" to="-224623102#3"/>
    <trip id="340" depart="340.00" from="172924456#4" to="-172924456#0"/>
    <trip id="341" depart="341.00" from="-1292994290" to="-1094015664"/>
    <trip id="342" depart="342.00" from="-1069545369#1" to="1092785339#1"/>
    <trip id="343" depart="343.00" from="1324288907" to="-26807587#2"/>
    <trip id="344" depart="344.00" from="-224623078#3" to="224623095"/>
    <trip id="345" depart="345.00" from="224623102#1" to="1093092654#0"/>
    <trip id="346" depart="346.00" from="224623087" to="36982658#2"/>
    <trip id="347" depart="347.00" from="26807587#1" to="133488796#4"/>
    <trip id="348" depart="348.00" from="172924456#4" to="37837696#3"/>
    <trip id="349" depart="349.00" from="-408521141#0" to="1094038174#1"/>
    <trip id="350" depart="350.00" from="157572494#5" to="36926703#2"/>
    <trip id="351" depart="351.00" from="30810606#0" to="-1094015658"/>
    <trip id="352" depart="352.00" from="-1227777952#3" to="-26807590#4"/>
    <trip id="353" depart="353.00" from="224623114#2" to="1183672117"/>
    <trip id="354" depart="354.00" from="-224623110#2" to="-1297660721"/>
    <trip id="355" depart="355.00" from="224623087" to="224623078#9"/>
    <trip id="356" depart="356.00" from="400478704#1" to="1094014092"/>
    <trip id="357" depart="357.00" from="1093092654#1" to="-1094015675#1"/>
    <trip id="358" depart="358.00" from="-1092785339#2" to="1082289078#0"/>
    <trip id="359" depart="359.00" from="-224632844#2" to="-224623114#1"/>
    <trip id="360" depart="360.00" from="-1094015656" to="408521141#1"/>
    <trip id="361" depart="361.00" from="31565098" to="1227777952#2"/>
    <trip id="362" depart="362.00" from="408519780" to="764502952"/>
    <trip id="363" depart="363.00" from="224623078#3" to="-224632844#2"/>
    <trip id="364" depart="364.00" from="-1092785339#2" to="224623114#0"/>
    <trip id="365" depart="365.00" from="1082289078#0" to="1351789580"/>
    <trip id="366" depart="366.00" from="36926703#3" to="-224623078#5"/>
    <trip id="367" depart="367.00" from="1312156094#1" to="133489253#2"/>
    <trip id="368" depart="368.00" from="1093092654#0" to="-1094038174#0"/>
    <trip id="369" depart="369.00" from="-26807590#1" to="-36913442#2"/>
    <trip id="370" depart="370.00" from="224623078#2" to="363451971#1"/>
    <trip id="371" depart="371.00" from="-224632845" to="224623078#7"/>
    <trip id="372" depart="372.00" from="-224623110#1" to="408519779"/>
    <trip id="373" depart="373.00" from="26807590#8" to="1102777038#0"/>
    <trip id="374" depart="374.00" from="1069545369#2" to="-26807590#7"/>
    <trip id="375" depart="375.00" from="-224632844#2" to="688595931#0"/>
    <trip id="376" depart="376.00" from="-36926703#0" to="1094015662#1"/>
    <trip id="377" depart="377.00" from="764500259#1" to="157572494#3"/>
    <trip id="378" depart="378.00" from="1094038174#0" to="1069545369#0"/>
    <trip id="379" depart="379.00" from="-1312156094#1" to="-36913445#9"/>
    <trip id="380" depart="380.00" from="224623115" to="133488796#5"/>
    <trip id="381" depart="381.00" from="224632092" to="-224623102#0"/>
    <trip id="382" depart="382.00" from="1102777038#1" to="37837696#1"/>
    <trip id="383" depart="383.00" from="-688693176" to="224623078#9"/>
    <trip id="384" depart="384.00" from="-1094038170#0" to="688595931#2"/>
    <trip id="385" depart="385.00" from="133488796#4" to="-224623110#4"/>
    <trip id="386" depart="386.00" from="-1227777952#0" to="1102777038#1"/>
    <trip id="387" depart="387.00" from="113793002#0" to="-1094038174#1"/>
    <trip id="388" depart="388.00" from="764502951#1" to="36926703#4"/>
    <trip id="389" depart="389.00" from="1069545370#2" to="-1227777952#2"/>
    <trip id="390" depart="390.00" from="30810606#3" to="1094014091#1"/>
    <trip id="391" depart="391.00" from="224623108#2" to="1094015658"/>
    <trip id="392" depart="392.00" from="-224623108#0" to="30810606#1"/>
    <trip id="393" depart="393.00" from="688595931#3" to="-224623113#0"/>
    <trip id="394" depart="394.00" from="1111947670" to="-400478704#1"/>
    <trip id="395" depart="395.00" from="36926703#6" to="1094015658"/>
    <trip id="396" depart="396.00" from="36913444#1" to="36913442#1"/>
    <trip id="397" depart="397.00" from="-224623108#2" to="224639758#1"/>
    <trip id="398" depart="398.00" from="-36926703#6" to="37837696#4"/>
    <trip id="399" depart="399.00" from="1093787365" to="26807590#8"/>
    <trip id="400" depart="400.00" from="-224623109#3" to="-26807590#1"/>
    <trip id="401" depart="401.00" from="1312156094#1" to="764502952"/>
    <trip id="402" depart="402.00" from="1092785339#2" to="-133488796#4"/>
    <trip id="403" depart="403.00" from="1094038171#0" to="-36913445#10"/>
    <trip id="404" depart="404.00" from="113793002#0" to="1094038173"/>
    <trip id="405" depart="405.00" from="1069545369#2" to="-324405057#0"/>